/*---------------------------------------------------------------------------*\
  =========                 |
  \\      /  F ield         | OpenFOAM: The Open Source CFD Toolbox
   \\    /   O peration     | Website:  https://openfoam.org
    \\  /    A nd           | Version:  9
     \\/     M anipulation  |
\*---------------------------------------------------------------------------*/
Build  : 9-b456138dc4bc
Exec   : simpleFoam
Date   : Jan 02 2022
Time   : 20:13:30
Host   : "DESKTOP-ISTVSSP"
PID    : 1701
I/O    : uncollated
Case   : /home/yiagoskyrits/OpenFOAM/yiagoskyrits-9/run/pitzDaily
nProcs : 1
sigFpe : Enabling floating point exception trapping (FOAM_SIGFPE).
fileModificationChecking : Monitoring run-time modified files using timeStampMaster (fileModificationSkew 10)
allowSystemOperations : Allowing user-supplied system call operations

// * * * * * * * * * * * * * * * * * * * * * * * * * * * * * * * * * * * * * //
Create time

Create mesh for time = 0


SIMPLE: Convergence criteria found
        p: tolerance 0.01
        U: tolerance 0.001
        "(k|epsilon|omega|f|v2)": tolerance 0.001

Reading field p

Reading field U

Reading/calculating face flux field phi

Selecting incompressible transport model Newtonian
Selecting turbulence model type RAS
Selecting RAS turbulence model kEpsilon
RAS
{
    model           kEpsilon;
    turbulence      on;
    printCoeffs     on;
    Cmu             0.09;
    C1              1.44;
    C2              1.92;
    C3              0;
    sigmak          1;
    sigmaEps        1.3;
}

No MRF models present

No fvModels present
No fvConstraints present

Starting time loop

Time = 1

smoothSolver:  Solving for Ux, Initial residual = 1, Final residual = 0.0538101, No Iterations 1
smoothSolver:  Solving for Uy, Initial residual = 1, Final residual = 0.030925, No Iterations 2
GAMG:  Solving for p, Initial residual = 1, Final residual = 0.068427, No Iterations 17
time step continuity errors : sum local = 1.19733, global = 0.179883, cumulative = 0.179883
smoothSolver:  Solving for epsilon, Initial residual = 0.232889, Final residual = 0.0114607, No Iterations 3
bounding epsilon, min: -1.98669 max: 1033.28 average: 35.8882
smoothSolver:  Solving for k, Initial residual = 1, Final residual = 0.0454605, No Iterations 3
ExecutionTime = 0.12 s  ClockTime = 0 s

Time = 2

smoothSolver:  Solving for Ux, Initial residual = 0.438341, Final residual = 0.0305665, No Iterations 5
smoothSolver:  Solving for Uy, Initial residual = 0.290558, Final residual = 0.0257879, No Iterations 4
GAMG:  Solving for p, Initial residual = 0.0522488, Final residual = 0.0043518, No Iterations 15
time step continuity errors : sum local = 3.97191, global = 0.123252, cumulative = 0.303135
smoothSolver:  Solving for epsilon, Initial residual = 0.176549, Final residual = 0.0103011, No Iterations 3
bounding epsilon, min: -10.4236 max: 23808.9 average: 70.8787
smoothSolver:  Solving for k, Initial residual = 0.436476, Final residual = 0.0394789, No Iterations 3
ExecutionTime = 0.16 s  ClockTime = 1 s

Time = 3

smoothSolver:  Solving for Ux, Initial residual = 0.1242, Final residual = 0.0111194, No Iterations 4
smoothSolver:  Solving for Uy, Initial residual = 0.216882, Final residual = 0.0156456, No Iterations 4
GAMG:  Solving for p, Initial residual = 0.142752, Final residual = 0.0119489, No Iterations 6
time step continuity errors : sum local = 3.34308, global = 0.328384, cumulative = 0.631519
smoothSolver:  Solving for epsilon, Initial residual = 0.175556, Final residual = 0.00809998, No Iterations 2
bounding epsilon, min: -898.388 max: 45796.6 average: 117.634
smoothSolver:  Solving for k, Initial residual = 0.19177, Final residual = 0.0156198, No Iterations 3
ExecutionTime = 0.18 s  ClockTime = 1 s

Time = 4

smoothSolver:  Solving for Ux, Initial residual = 0.0677461, Final residual = 0.00434822, No Iterations 5
smoothSolver:  Solving for Uy, Initial residual = 0.107483, Final residual = 0.00821404, No Iterations 4
GAMG:  Solving for p, Initial residual = 0.106101, Final residual = 0.0105578, No Iterations 6
time step continuity errors : sum local = 1.74652, global = 0.177148, cumulative = 0.808667
smoothSolver:  Solving for epsilon, Initial residual = 0.0706261, Final residual = 0.00578413, No Iterations 2
bounding epsilon, min: -172.109 max: 53277.1 average: 128.97
smoothSolver:  Solving for k, Initial residual = 0.124699, Final residual = 0.0111252, No Iterations 3
ExecutionTime = 0.21 s  ClockTime = 1 s

Time = 5

smoothSolver:  Solving for Ux, Initial residual = 0.0568161, Final residual = 0.00396899, No Iterations 5
smoothSolver:  Solving for Uy, Initial residual = 0.0866044, Final residual = 0.00827386, No Iterations 4
GAMG:  Solving for p, Initial residual = 0.104687, Final residual = 0.00807965, No Iterations 4
time step continuity errors : sum local = 1.02739, global = 0.0926022, cumulative = 0.901269
smoothSolver:  Solving for epsilon, Initial residual = 0.0924274, Final residual = 0.00558065, No Iterations 2
smoothSolver:  Solving for k, Initial residual = 0.0863067, Final residual = 0.00509516, No Iterations 4
ExecutionTime = 0.23 s  ClockTime = 1 s

Time = 6

smoothSolver:  Solving for Ux, Initial residual = 0.0518462, Final residual = 0.00389671, No Iterations 5
smoothSolver:  Solving for Uy, Initial residual = 0.0724358, Final residual = 0.00491578, No Iterations 5
GAMG:  Solving for p, Initial residual = 0.0866798, Final residual = 0.00650242, No Iterations 4
time step continuity errors : sum local = 0.769036, global = -0.0579863, cumulative = 0.843283
smoothSolver:  Solving for epsilon, Initial residual = 0.0532597, Final residual = 0.0030127, No Iterations 3
smoothSolver:  Solving for k, Initial residual = 0.0688441, Final residual = 0.00474344, No Iterations 4
ExecutionTime = 0.26 s  ClockTime = 1 s

Time = 7

smoothSolver:  Solving for Ux, Initial residual = 0.0479749, Final residual = 0.00385981, No Iterations 5
smoothSolver:  Solving for Uy, Initial residual = 0.0632954, Final residual = 0.00456312, No Iterations 5
GAMG:  Solving for p, Initial residual = 0.0715262, Final residual = 0.00458829, No Iterations 4
time step continuity errors : sum local = 0.54064, global = -0.0673334, cumulative = 0.77595
smoothSolver:  Solving for epsilon, Initial residual = 0.0478336, Final residual = 0.00273327, No Iterations 3
smoothSolver:  Solving for k, Initial residual = 0.0581633, Final residual = 0.00422243, No Iterations 4
ExecutionTime = 0.28 s  ClockTime = 1 s

Time = 8

smoothSolver:  Solving for Ux, Initial residual = 0.0441947, Final residual = 0.00377885, No Iterations 5
smoothSolver:  Solving for Uy, Initial residual = 0.0584354, Final residual = 0.00434173, No Iterations 5
GAMG:  Solving for p, Initial residual = 0.0622712, Final residual = 0.00510467, No Iterations 3
time step continuity errors : sum local = 0.605643, global = 0.0148904, cumulative = 0.79084
smoothSolver:  Solving for epsilon, Initial residual = 0.0408062, Final residual = 0.0027531, No Iterations 3
smoothSolver:  Solving for k, Initial residual = 0.0515892, Final residual = 0.00389043, No Iterations 4
ExecutionTime = 0.3 s  ClockTime = 1 s

Time = 9

smoothSolver:  Solving for Ux, Initial residual = 0.0408727, Final residual = 0.00364296, No Iterations 5
smoothSolver:  Solving for Uy, Initial residual = 0.055182, Final residual = 0.00421445, No Iterations 5
GAMG:  Solving for p, Initial residual = 0.0568796, Final residual = 0.0047455, No Iterations 3
time step continuity errors : sum local = 0.569032, global = 0.00270303, cumulative = 0.793543
smoothSolver:  Solving for epsilon, Initial residual = 0.0421654, Final residual = 0.00288154, No Iterations 3
smoothSolver:  Solving for k, Initial residual = 0.0482391, Final residual = 0.00373143, No Iterations 4
ExecutionTime = 0.33 s  ClockTime = 1 s

Time = 10

smoothSolver:  Solving for Ux, Initial residual = 0.0385475, Final residual = 0.0035151, No Iterations 5
smoothSolver:  Solving for Uy, Initial residual = 0.0512219, Final residual = 0.004032, No Iterations 5
GAMG:  Solving for p, Initial residual = 0.0511439, Final residual = 0.00393786, No Iterations 3
time step continuity errors : sum local = 0.483766, global = 0.0135891, cumulative = 0.807132
smoothSolver:  Solving for epsilon, Initial residual = 0.04062, Final residual = 0.00294634, No Iterations 3
smoothSolver:  Solving for k, Initial residual = 0.0450741, Final residual = 0.00351754, No Iterations 4
ExecutionTime = 0.35 s  ClockTime = 1 s

Time = 11

smoothSolver:  Solving for Ux, Initial residual = 0.0364155, Final residual = 0.0033731, No Iterations 5
smoothSolver:  Solving for Uy, Initial residual = 0.0483305, Final residual = 0.00390655, No Iterations 5
GAMG:  Solving for p, Initial residual = 0.0496771, Final residual = 0.00343242, No Iterations 3
time step continuity errors : sum local = 0.446609, global = 0.0102881, cumulative = 0.81742
smoothSolver:  Solving for epsilon, Initial residual = 0.0395389, Final residual = 0.00299781, No Iterations 3
smoothSolver:  Solving for k, Initial residual = 0.0425857, Final residual = 0.00333424, No Iterations 4
ExecutionTime = 0.38 s  ClockTime = 1 s

Time = 12

smoothSolver:  Solving for Ux, Initial residual = 0.0341641, Final residual = 0.00321404, No Iterations 5
smoothSolver:  Solving for Uy, Initial residual = 0.0465831, Final residual = 0.00381544, No Iterations 5
GAMG:  Solving for p, Initial residual = 0.0479465, Final residual = 0.0034051, No Iterations 3
time step continuity errors : sum local = 0.39987, global = 0.00651988, cumulative = 0.82394
smoothSolver:  Solving for epsilon, Initial residual = 0.0372402, Final residual = 0.00293875, No Iterations 3
smoothSolver:  Solving for k, Initial residual = 0.040664, Final residual = 0.00320504, No Iterations 4
ExecutionTime = 0.4 s  ClockTime = 1 s

Time = 13

smoothSolver:  Solving for Ux, Initial residual = 0.0322634, Final residual = 0.00304332, No Iterations 5
smoothSolver:  Solving for Uy, Initial residual = 0.0448902, Final residual = 0.00371952, No Iterations 5
GAMG:  Solving for p, Initial residual = 0.0493952, Final residual = 0.00320677, No Iterations 3
time step continuity errors : sum local = 0.383428, global = 0.00578609, cumulative = 0.829726
smoothSolver:  Solving for epsilon, Initial residual = 0.0358746, Final residual = 0.00292223, No Iterations 3
smoothSolver:  Solving for k, Initial residual = 0.0387474, Final residual = 0.00304401, No Iterations 4
ExecutionTime = 0.42 s  ClockTime = 1 s

Time = 14

smoothSolver:  Solving for Ux, Initial residual = 0.0306875, Final residual = 0.00288185, No Iterations 5
smoothSolver:  Solving for Uy, Initial residual = 0.0435788, Final residual = 0.00363654, No Iterations 5
GAMG:  Solving for p, Initial residual = 0.050417, Final residual = 0.00308403, No Iterations 3
time step continuity errors : sum local = 0.374938, global = 0.0032476, cumulative = 0.832974
smoothSolver:  Solving for epsilon, Initial residual = 0.0346282, Final residual = 0.00287942, No Iterations 3
smoothSolver:  Solving for k, Initial residual = 0.0367721, Final residual = 0.002879, No Iterations 4
ExecutionTime = 0.45 s  ClockTime = 1 s

Time = 15

smoothSolver:  Solving for Ux, Initial residual = 0.0289984, Final residual = 0.00272812, No Iterations 5
smoothSolver:  Solving for Uy, Initial residual = 0.0427927, Final residual = 0.00355914, No Iterations 5
GAMG:  Solving for p, Initial residual = 0.0482373, Final residual = 0.00318389, No Iterations 3
time step continuity errors : sum local = 0.357267, global = 0.000290183, cumulative = 0.833264
smoothSolver:  Solving for epsilon, Initial residual = 0.0327352, Final residual = 0.0027774, No Iterations 3
smoothSolver:  Solving for k, Initial residual = 0.034943, Final residual = 0.00273595, No Iterations 4
ExecutionTime = 0.47 s  ClockTime = 1 s

Time = 16

smoothSolver:  Solving for Ux, Initial residual = 0.0272045, Final residual = 0.00258224, No Iterations 5
smoothSolver:  Solving for Uy, Initial residual = 0.0415076, Final residual = 0.00348856, No Iterations 5
GAMG:  Solving for p, Initial residual = 0.0458175, Final residual = 0.00319153, No Iterations 3
time step continuity errors : sum local = 0.345737, global = -0.000366674, cumulative = 0.832897
smoothSolver:  Solving for epsilon, Initial residual = 0.0298129, Final residual = 0.00267189, No Iterations 3
smoothSolver:  Solving for k, Initial residual = 0.033464, Final residual = 0.00261829, No Iterations 4
ExecutionTime = 0.49 s  ClockTime = 1 s

Time = 17

smoothSolver:  Solving for Ux, Initial residual = 0.0255485, Final residual = 0.0024464, No Iterations 5
smoothSolver:  Solving for Uy, Initial residual = 0.0400513, Final residual = 0.00342833, No Iterations 5
GAMG:  Solving for p, Initial residual = 0.0431377, Final residual = 0.00327231, No Iterations 3
time step continuity errors : sum local = 0.345125, global = -0.00244891, cumulative = 0.830449
smoothSolver:  Solving for epsilon, Initial residual = 0.0276848, Final residual = 0.0025219, No Iterations 3
smoothSolver:  Solving for k, Initial residual = 0.0317833, Final residual = 0.0024784, No Iterations 4
ExecutionTime = 0.52 s  ClockTime = 1 s

Time = 18

smoothSolver:  Solving for Ux, Initial residual = 0.0241153, Final residual = 0.00231696, No Iterations 5
smoothSolver:  Solving for Uy, Initial residual = 0.0386076, Final residual = 0.00336693, No Iterations 5
GAMG:  Solving for p, Initial residual = 0.040871, Final residual = 0.00341167, No Iterations 3
time step continuity errors : sum local = 0.344262, global = -0.00467956, cumulative = 0.825769
smoothSolver:  Solving for epsilon, Initial residual = 0.0258948, Final residual = 0.00239476, No Iterations 3
smoothSolver:  Solving for k, Initial residual = 0.0301193, Final residual = 0.00233587, No Iterations 4
ExecutionTime = 0.54 s  ClockTime = 1 s

Time = 19

smoothSolver:  Solving for Ux, Initial residual = 0.0228259, Final residual = 0.00219274, No Iterations 5
smoothSolver:  Solving for Uy, Initial residual = 0.0370864, Final residual = 0.00330218, No Iterations 5
GAMG:  Solving for p, Initial residual = 0.0390706, Final residual = 0.00345471, No Iterations 3
time step continuity errors : sum local = 0.338287, global = -0.0059002, cumulative = 0.819869
smoothSolver:  Solving for epsilon, Initial residual = 0.0243634, Final residual = 0.00225905, No Iterations 3
smoothSolver:  Solving for k, Initial residual = 0.0287448, Final residual = 0.00222971, No Iterations 4
ExecutionTime = 0.58 s  ClockTime = 1 s

Time = 20

smoothSolver:  Solving for Ux, Initial residual = 0.0216085, Final residual = 0.00207238, No Iterations 5
smoothSolver:  Solving for Uy, Initial residual = 0.0358353, Final residual = 0.00324068, No Iterations 5
GAMG:  Solving for p, Initial residual = 0.0379426, Final residual = 0.00340427, No Iterations 3
time step continuity errors : sum local = 0.327824, global = -0.00587192, cumulative = 0.813997
smoothSolver:  Solving for epsilon, Initial residual = 0.0228092, Final residual = 0.00211014, No Iterations 3
smoothSolver:  Solving for k, Initial residual = 0.027246, Final residual = 0.00210471, No Iterations 4
ExecutionTime = 0.6 s  ClockTime = 1 s

Time = 21

smoothSolver:  Solving for Ux, Initial residual = 0.0203939, Final residual = 0.0019565, No Iterations 5
smoothSolver:  Solving for Uy, Initial residual = 0.0348122, Final residual = 0.00318618, No Iterations 5
GAMG:  Solving for p, Initial residual = 0.0361484, Final residual = 0.0034316, No Iterations 3
time step continuity errors : sum local = 0.317432, global = -0.00832076, cumulative = 0.805676
smoothSolver:  Solving for epsilon, Initial residual = 0.0218156, Final residual = 0.00201034, No Iterations 3
smoothSolver:  Solving for k, Initial residual = 0.0261942, Final residual = 0.00201829, No Iterations 4
ExecutionTime = 0.62 s  ClockTime = 1 s

Time = 22

smoothSolver:  Solving for Ux, Initial residual = 0.0192214, Final residual = 0.00184662, No Iterations 5
smoothSolver:  Solving for Uy, Initial residual = 0.0338194, Final residual = 0.00313018, No Iterations 5
GAMG:  Solving for p, Initial residual = 0.0338071, Final residual = 0.00337191, No Iterations 3
time step continuity errors : sum local = 0.299164, global = -0.00976282, cumulative = 0.795913
smoothSolver:  Solving for epsilon, Initial residual = 0.0206453, Final residual = 0.00188662, No Iterations 3
smoothSolver:  Solving for k, Initial residual = 0.0251381, Final residual = 0.00192793, No Iterations 4
ExecutionTime = 0.65 s  ClockTime = 1 s

Time = 23

smoothSolver:  Solving for Ux, Initial residual = 0.0181195, Final residual = 0.00174122, No Iterations 5
smoothSolver:  Solving for Uy, Initial residual = 0.0327878, Final residual = 0.00306987, No Iterations 5
GAMG:  Solving for p, Initial residual = 0.0334676, Final residual = 0.0032423, No Iterations 3
time step continuity errors : sum local = 0.282623, global = -0.00950976, cumulative = 0.786403
smoothSolver:  Solving for epsilon, Initial residual = 0.0195936, Final residual = 0.00178369, No Iterations 3
smoothSolver:  Solving for k, Initial residual = 0.0240538, Final residual = 0.00183766, No Iterations 4
ExecutionTime = 0.67 s  ClockTime = 1 s

Time = 24

smoothSolver:  Solving for Ux, Initial residual = 0.0170883, Final residual = 0.00164242, No Iterations 5
smoothSolver:  Solving for Uy, Initial residual = 0.0316732, Final residual = 0.00301014, No Iterations 5
GAMG:  Solving for p, Initial residual = 0.0324091, Final residual = 0.00322181, No Iterations 3
time step continuity errors : sum local = 0.274456, global = -0.0107399, cumulative = 0.775664
smoothSolver:  Solving for epsilon, Initial residual = 0.0185106, Final residual = 0.00167474, No Iterations 3
smoothSolver:  Solving for k, Initial residual = 0.0231494, Final residual = 0.00176465, No Iterations 4
ExecutionTime = 0.69 s  ClockTime = 1 s

Time = 25

smoothSolver:  Solving for Ux, Initial residual = 0.0161328, Final residual = 0.00154754, No Iterations 5
smoothSolver:  Solving for Uy, Initial residual = 0.0307561, Final residual = 0.00294575, No Iterations 5
GAMG:  Solving for p, Initial residual = 0.030899, Final residual = 0.00220203, No Iterations 4
time step continuity errors : sum local = 0.181001, global = 0.0269625, cumulative = 0.802626
smoothSolver:  Solving for epsilon, Initial residual = 0.0177163, Final residual = 0.00157662, No Iterations 3
smoothSolver:  Solving for k, Initial residual = 0.0223402, Final residual = 0.0017005, No Iterations 4
ExecutionTime = 0.72 s  ClockTime = 1 s

Time = 26

smoothSolver:  Solving for Ux, Initial residual = 0.0151735, Final residual = 0.00145197, No Iterations 5
smoothSolver:  Solving for Uy, Initial residual = 0.0299539, Final residual = 0.00287959, No Iterations 5
GAMG:  Solving for p, Initial residual = 0.0306095, Final residual = 0.00283508, No Iterations 3
time step continuity errors : sum local = 0.227832, global = -0.0124851, cumulative = 0.790141
smoothSolver:  Solving for epsilon, Initial residual = 0.0168281, Final residual = 0.00149365, No Iterations 3
smoothSolver:  Solving for k, Initial residual = 0.0214676, Final residual = 0.0016205, No Iterations 4
ExecutionTime = 0.74 s  ClockTime = 1 s

Time = 27

smoothSolver:  Solving for Ux, Initial residual = 0.0143247, Final residual = 0.00137426, No Iterations 5
smoothSolver:  Solving for Uy, Initial residual = 0.0290175, Final residual = 0.00280933, No Iterations 5
GAMG:  Solving for p, Initial residual = 0.0307524, Final residual = 0.00228294, No Iterations 4
time step continuity errors : sum local = 0.180715, global = 0.0257004, cumulative = 0.815841
smoothSolver:  Solving for epsilon, Initial residual = 0.0160713, Final residual = 0.0014212, No Iterations 3
smoothSolver:  Solving for k, Initial residual = 0.0208344, Final residual = 0.00156704, No Iterations 4
ExecutionTime = 0.77 s  ClockTime = 1 s

Time = 28

smoothSolver:  Solving for Ux, Initial residual = 0.0134407, Final residual = 0.00128632, No Iterations 5
smoothSolver:  Solving for Uy, Initial residual = 0.0280672, Final residual = 0.00272961, No Iterations 5
GAMG:  Solving for p, Initial residual = 0.0285605, Final residual = 0.0021495, No Iterations 4
time step continuity errors : sum local = 0.163827, global = 0.0259232, cumulative = 0.841765
smoothSolver:  Solving for epsilon, Initial residual = 0.015413, Final residual = 0.00134814, No Iterations 3
smoothSolver:  Solving for k, Initial residual = 0.0200744, Final residual = 0.00149943, No Iterations 4
ExecutionTime = 0.78 s  ClockTime = 1 s

Time = 29

smoothSolver:  Solving for Ux, Initial residual = 0.0126178, Final residual = 0.0012105, No Iterations 5
smoothSolver:  Solving for Uy, Initial residual = 0.0272616, Final residual = 0.00266301, No Iterations 5
GAMG:  Solving for p, Initial residual = 0.0293906, Final residual = 0.00224586, No Iterations 4
time step continuity errors : sum local = 0.167104, global = 0.0272435, cumulative = 0.869008
smoothSolver:  Solving for epsilon, Initial residual = 0.0146601, Final residual = 0.00128961, No Iterations 3
smoothSolver:  Solving for k, Initial residual = 0.0193873, Final residual = 0.00144171, No Iterations 4
ExecutionTime = 0.81 s  ClockTime = 1 s

Time = 30

smoothSolver:  Solving for Ux, Initial residual = 0.0118659, Final residual = 0.00113791, No Iterations 5
smoothSolver:  Solving for Uy, Initial residual = 0.0264612, Final residual = 0.00259097, No Iterations 5
GAMG:  Solving for p, Initial residual = 0.0303841, Final residual = 0.00228178, No Iterations 4
time step continuity errors : sum local = 0.166772, global = 0.0275538, cumulative = 0.896562
smoothSolver:  Solving for epsilon, Initial residual = 0.013983, Final residual = 0.00123735, No Iterations 3
smoothSolver:  Solving for k, Initial residual = 0.0187089, Final residual = 0.00138942, No Iterations 4
ExecutionTime = 0.83 s  ClockTime = 1 s

Time = 31

smoothSolver:  Solving for Ux, Initial residual = 0.0111235, Final residual = 0.00106869, No Iterations 5
smoothSolver:  Solving for Uy, Initial residual = 0.0256178, Final residual = 0.00252228, No Iterations 5
GAMG:  Solving for p, Initial residual = 0.0300275, Final residual = 0.00233807, No Iterations 4
time step continuity errors : sum local = 0.16669, global = 0.0296637, cumulative = 0.926226
smoothSolver:  Solving for epsilon, Initial residual = 0.0134054, Final residual = 0.00117557, No Iterations 3
smoothSolver:  Solving for k, Initial residual = 0.0180926, Final residual = 0.00133975, No Iterations 4
ExecutionTime = 0.86 s  ClockTime = 1 s

Time = 32

smoothSolver:  Solving for Ux, Initial residual = 0.0104307, Final residual = 0.00100445, No Iterations 5
smoothSolver:  Solving for Uy, Initial residual = 0.024914, Final residual = 0.00245566, No Iterations 5
GAMG:  Solving for p, Initial residual = 0.0306153, Final residual = 0.00230428, No Iterations 4
time step continuity errors : sum local = 0.159946, global = 0.0289424, cumulative = 0.955168
smoothSolver:  Solving for epsilon, Initial residual = 0.0128576, Final residual = 0.00112686, No Iterations 3
smoothSolver:  Solving for k, Initial residual = 0.017468, Final residual = 0.00128886, No Iterations 4
ExecutionTime = 0.88 s  ClockTime = 1 s

Time = 33

smoothSolver:  Solving for Ux, Initial residual = 0.00977994, Final residual = 0.000943291, No Iterations 5
smoothSolver:  Solving for Uy, Initial residual = 0.0240663, Final residual = 0.00239145, No Iterations 5
GAMG:  Solving for p, Initial residual = 0.0288721, Final residual = 0.00224061, No Iterations 4
time step continuity errors : sum local = 0.151778, global = 0.0278189, cumulative = 0.982987
smoothSolver:  Solving for epsilon, Initial residual = 0.0123088, Final residual = 0.00108311, No Iterations 3
smoothSolver:  Solving for k, Initial residual = 0.0168985, Final residual = 0.00124755, No Iterations 4
ExecutionTime = 0.91 s  ClockTime = 1 s

Time = 34

smoothSolver:  Solving for Ux, Initial residual = 0.0091542, Final residual = 0.000886839, No Iterations 5
smoothSolver:  Solving for Uy, Initial residual = 0.0233433, Final residual = 0.00233128, No Iterations 5
GAMG:  Solving for p, Initial residual = 0.0277438, Final residual = 0.00217492, No Iterations 4
time step continuity errors : sum local = 0.144345, global = 0.0266757, cumulative = 1.00966
smoothSolver:  Solving for epsilon, Initial residual = 0.011883, Final residual = 0.00105156, No Iterations 3
smoothSolver:  Solving for k, Initial residual = 0.0164029, Final residual = 0.00120967, No Iterations 4
ExecutionTime = 0.94 s  ClockTime = 1 s

Time = 35

smoothSolver:  Solving for Ux, Initial residual = 0.00859833, Final residual = 0.000834891, No Iterations 5
smoothSolver:  Solving for Uy, Initial residual = 0.022755, Final residual = 0.00147027, No Iterations 6
GAMG:  Solving for p, Initial residual = 0.0279062, Final residual = 0.00197066, No Iterations 4
time step continuity errors : sum local = 0.128187, global = 0.0213975, cumulative = 1.03106
smoothSolver:  Solving for epsilon, Initial residual = 0.011395, Final residual = 0.00100864, No Iterations 3
smoothSolver:  Solving for k, Initial residual = 0.0158497, Final residual = 0.00116558, No Iterations 4
ExecutionTime = 0.97 s  ClockTime = 1 s

Time = 36

smoothSolver:  Solving for Ux, Initial residual = 0.00811624, Final residual = 0.000791718, No Iterations 5
smoothSolver:  Solving for Uy, Initial residual = 0.0218541, Final residual = 0.00142376, No Iterations 6
GAMG:  Solving for p, Initial residual = 0.027123, Final residual = 0.00210173, No Iterations 4
time step continuity errors : sum local = 0.133269, global = 0.0236414, cumulative = 1.0547
smoothSolver:  Solving for epsilon, Initial residual = 0.0109425, Final residual = 0.00097471, No Iterations 3
smoothSolver:  Solving for k, Initial residual = 0.0153876, Final residual = 0.00113177, No Iterations 4
ExecutionTime = 0.99 s  ClockTime = 1 s

Time = 37

smoothSolver:  Solving for Ux, Initial residual = 0.00763333, Final residual = 0.000747893, No Iterations 5
smoothSolver:  Solving for Uy, Initial residual = 0.0211807, Final residual = 0.00138782, No Iterations 6
GAMG:  Solving for p, Initial residual = 0.0267019, Final residual = 0.00184869, No Iterations 4
time step continuity errors : sum local = 0.114932, global = 0.0185224, cumulative = 1.07322
smoothSolver:  Solving for epsilon, Initial residual = 0.0105831, Final residual = 0.000939988, No Iterations 3
smoothSolver:  Solving for k, Initial residual = 0.0149115, Final residual = 0.00109185, No Iterations 4
ExecutionTime = 1.02 s  ClockTime = 1 s

Time = 38

smoothSolver:  Solving for Ux, Initial residual = 0.0072061, Final residual = 0.000707581, No Iterations 5
smoothSolver:  Solving for Uy, Initial residual = 0.020626, Final residual = 0.00136479, No Iterations 6
GAMG:  Solving for p, Initial residual = 0.0278772, Final residual = 0.00194376, No Iterations 4
time step continuity errors : sum local = 0.119357, global = 0.0207285, cumulative = 1.09395
smoothSolver:  Solving for epsilon, Initial residual = 0.0102597, Final residual = 0.000909056, No Iterations 3
smoothSolver:  Solving for k, Initial residual = 0.0143802, Final residual = 0.00105498, No Iterations 4
ExecutionTime = 1.05 s  ClockTime = 1 s

Time = 39

smoothSolver:  Solving for Ux, Initial residual = 0.00681421, Final residual = 0.000671583, No Iterations 5
smoothSolver:  Solving for Uy, Initial residual = 0.0202832, Final residual = 0.0013447, No Iterations 6
GAMG:  Solving for p, Initial residual = 0.0261709, Final residual = 0.00190039, No Iterations 4
time step continuity errors : sum local = 0.113043, global = 0.0190552, cumulative = 1.11301
smoothSolver:  Solving for epsilon, Initial residual = 0.00977562, Final residual = 0.000878401, No Iterations 3
smoothSolver:  Solving for k, Initial residual = 0.0139104, Final residual = 0.00101672, No Iterations 4
ExecutionTime = 1.08 s  ClockTime = 1 s

Time = 40

smoothSolver:  Solving for Ux, Initial residual = 0.00642981, Final residual = 0.000637481, No Iterations 5
smoothSolver:  Solving for Uy, Initial residual = 0.0198522, Final residual = 0.0013305, No Iterations 6
GAMG:  Solving for p, Initial residual = 0.0255362, Final residual = 0.00178791, No Iterations 4
time step continuity errors : sum local = 0.104009, global = 0.0174362, cumulative = 1.13044
smoothSolver:  Solving for epsilon, Initial residual = 0.00947517, Final residual = 0.000845541, No Iterations 3
smoothSolver:  Solving for k, Initial residual = 0.0134589, Final residual = 0.00098381, No Iterations 4
ExecutionTime = 1.1 s  ClockTime = 1 s

Time = 41

smoothSolver:  Solving for Ux, Initial residual = 0.00611355, Final residual = 0.000606949, No Iterations 5
smoothSolver:  Solving for Uy, Initial residual = 0.0195435, Final residual = 0.00131819, No Iterations 6
GAMG:  Solving for p, Initial residual = 0.0270621, Final residual = 0.00240782, No Iterations 3
time step continuity errors : sum local = 0.140003, global = -0.0172892, cumulative = 1.11315
smoothSolver:  Solving for epsilon, Initial residual = 0.00913263, Final residual = 0.000806429, No Iterations 3
smoothSolver:  Solving for k, Initial residual = 0.0129547, Final residual = 0.000945516, No Iterations 4
ExecutionTime = 1.13 s  ClockTime = 1 s

Time = 42

smoothSolver:  Solving for Ux, Initial residual = 0.00584201, Final residual = 0.000582956, No Iterations 5
smoothSolver:  Solving for Uy, Initial residual = 0.0191991, Final residual = 0.00130354, No Iterations 6
GAMG:  Solving for p, Initial residual = 0.0252657, Final residual = 0.00222879, No Iterations 3
time step continuity errors : sum local = 0.125691, global = 0.0106827, cumulative = 1.12384
smoothSolver:  Solving for epsilon, Initial residual = 0.0087535, Final residual = 0.000778348, No Iterations 3
smoothSolver:  Solving for k, Initial residual = 0.0125454, Final residual = 0.00090949, No Iterations 4
ExecutionTime = 1.17 s  ClockTime = 1 s

Time = 43

smoothSolver:  Solving for Ux, Initial residual = 0.00555855, Final residual = 0.00035638, No Iterations 6
smoothSolver:  Solving for Uy, Initial residual = 0.0190646, Final residual = 0.0012978, No Iterations 6
GAMG:  Solving for p, Initial residual = 0.0259052, Final residual = 0.00232089, No Iterations 3
time step continuity errors : sum local = 0.128357, global = -0.00596533, cumulative = 1.11787
smoothSolver:  Solving for epsilon, Initial residual = 0.00853246, Final residual = 0.000743566, No Iterations 3
smoothSolver:  Solving for k, Initial residual = 0.0121112, Final residual = 0.000874695, No Iterations 4
ExecutionTime = 1.19 s  ClockTime = 2 s

Time = 44

smoothSolver:  Solving for Ux, Initial residual = 0.00529452, Final residual = 0.000340814, No Iterations 6
smoothSolver:  Solving for Uy, Initial residual = 0.0188783, Final residual = 0.00130439, No Iterations 6
GAMG:  Solving for p, Initial residual = 0.0266936, Final residual = 0.00201334, No Iterations 3
time step continuity errors : sum local = 0.11233, global = 0.0083893, cumulative = 1.12626
smoothSolver:  Solving for epsilon, Initial residual = 0.00819944, Final residual = 0.000706681, No Iterations 3
smoothSolver:  Solving for k, Initial residual = 0.011718, Final residual = 0.000846423, No Iterations 4
ExecutionTime = 1.22 s  ClockTime = 2 s

Time = 45

smoothSolver:  Solving for Ux, Initial residual = 0.00509025, Final residual = 0.000328951, No Iterations 6
smoothSolver:  Solving for Uy, Initial residual = 0.0189117, Final residual = 0.00130538, No Iterations 6
GAMG:  Solving for p, Initial residual = 0.0239881, Final residual = 0.00199185, No Iterations 3
time step continuity errors : sum local = 0.107743, global = 0.00705215, cumulative = 1.13331
smoothSolver:  Solving for epsilon, Initial residual = 0.0078777, Final residual = 0.000685882, No Iterations 3
smoothSolver:  Solving for k, Initial residual = 0.0112631, Final residual = 0.000811395, No Iterations 4
ExecutionTime = 1.25 s  ClockTime = 2 s

Time = 46

smoothSolver:  Solving for Ux, Initial residual = 0.00489456, Final residual = 0.000317485, No Iterations 6
smoothSolver:  Solving for Uy, Initial residual = 0.0188131, Final residual = 0.00130845, No Iterations 6
GAMG:  Solving for p, Initial residual = 0.0248691, Final residual = 0.00181341, No Iterations 3
time step continuity errors : sum local = 0.0958357, global = 0.014144, cumulative = 1.14746
smoothSolver:  Solving for epsilon, Initial residual = 0.00761585, Final residual = 0.000660005, No Iterations 3
smoothSolver:  Solving for k, Initial residual = 0.0108848, Final residual = 0.000781434, No Iterations 4
ExecutionTime = 1.27 s  ClockTime = 2 s

Time = 47

smoothSolver:  Solving for Ux, Initial residual = 0.00473513, Final residual = 0.000308174, No Iterations 6
smoothSolver:  Solving for Uy, Initial residual = 0.0186565, Final residual = 0.00130794, No Iterations 6
GAMG:  Solving for p, Initial residual = 0.0258277, Final residual = 0.00180494, No Iterations 3
time step continuity errors : sum local = 0.0966925, global = 0.015889, cumulative = 1.16335
smoothSolver:  Solving for epsilon, Initial residual = 0.00737327, Final residual = 0.00062729, No Iterations 3
smoothSolver:  Solving for k, Initial residual = 0.0104725, Final residual = 0.000752054, No Iterations 4
ExecutionTime = 1.3 s  ClockTime = 2 s

Time = 48

smoothSolver:  Solving for Ux, Initial residual = 0.00461389, Final residual = 0.000301365, No Iterations 6
smoothSolver:  Solving for Uy, Initial residual = 0.0186469, Final residual = 0.00130501, No Iterations 6
GAMG:  Solving for p, Initial residual = 0.0226017, Final residual = 0.00190882, No Iterations 3
time step continuity errors : sum local = 0.0995683, global = 0.0175031, cumulative = 1.18085
smoothSolver:  Solving for epsilon, Initial residual = 0.00709288, Final residual = 0.000600108, No Iterations 3
smoothSolver:  Solving for k, Initial residual = 0.010159, Final residual = 0.000728738, No Iterations 4
ExecutionTime = 1.33 s  ClockTime = 2 s

Time = 49

smoothSolver:  Solving for Ux, Initial residual = 0.00449209, Final residual = 0.000294437, No Iterations 6
smoothSolver:  Solving for Uy, Initial residual = 0.0186211, Final residual = 0.00131087, No Iterations 6
GAMG:  Solving for p, Initial residual = 0.0228447, Final residual = 0.00182728, No Iterations 3
time step continuity errors : sum local = 0.0939146, global = 0.0165006, cumulative = 1.19735
smoothSolver:  Solving for epsilon, Initial residual = 0.00690455, Final residual = 0.000578046, No Iterations 3
smoothSolver:  Solving for k, Initial residual = 0.00983029, Final residual = 0.000705388, No Iterations 4
ExecutionTime = 1.35 s  ClockTime = 2 s

Time = 50

smoothSolver:  Solving for Ux, Initial residual = 0.00439345, Final residual = 0.000288736, No Iterations 6
smoothSolver:  Solving for Uy, Initial residual = 0.0185825, Final residual = 0.00131556, No Iterations 6
GAMG:  Solving for p, Initial residual = 0.0239655, Final residual = 0.00172069, No Iterations 3
time step continuity errors : sum local = 0.0893255, global = 0.016087, cumulative = 1.21344
smoothSolver:  Solving for epsilon, Initial residual = 0.00673946, Final residual = 0.000553133, No Iterations 3
smoothSolver:  Solving for k, Initial residual = 0.00949178, Final residual = 0.000677816, No Iterations 4
ExecutionTime = 1.38 s  ClockTime = 2 s

Time = 51

smoothSolver:  Solving for Ux, Initial residual = 0.00433141, Final residual = 0.000285235, No Iterations 6
smoothSolver:  Solving for Uy, Initial residual = 0.0186502, Final residual = 0.0013165, No Iterations 6
GAMG:  Solving for p, Initial residual = 0.0218967, Final residual = 0.00173695, No Iterations 3
time step continuity errors : sum local = 0.0884087, global = 0.0162585, cumulative = 1.2297
smoothSolver:  Solving for epsilon, Initial residual = 0.00650804, Final residual = 0.00053591, No Iterations 3
smoothSolver:  Solving for k, Initial residual = 0.00913663, Final residual = 0.000655126, No Iterations 4
ExecutionTime = 1.4 s  ClockTime = 2 s

Time = 52

smoothSolver:  Solving for Ux, Initial residual = 0.00425635, Final residual = 0.000281272, No Iterations 6
smoothSolver:  Solving for Uy, Initial residual = 0.0186275, Final residual = 0.00132202, No Iterations 6
GAMG:  Solving for p, Initial residual = 0.0219673, Final residual = 0.00165221, No Iterations 3
time step continuity errors : sum local = 0.0832986, global = 0.0150219, cumulative = 1.24472
smoothSolver:  Solving for epsilon, Initial residual = 0.0063382, Final residual = 0.000511678, No Iterations 3
smoothSolver:  Solving for k, Initial residual = 0.00884422, Final residual = 0.000629627, No Iterations 4
ExecutionTime = 1.43 s  ClockTime = 2 s

Time = 53

smoothSolver:  Solving for Ux, Initial residual = 0.00420259, Final residual = 0.000277792, No Iterations 6
smoothSolver:  Solving for Uy, Initial residual = 0.0186133, Final residual = 0.00132789, No Iterations 6
GAMG:  Solving for p, Initial residual = 0.0227551, Final residual = 0.00161653, No Iterations 3
time step continuity errors : sum local = 0.0817125, global = 0.0155983, cumulative = 1.26032
smoothSolver:  Solving for epsilon, Initial residual = 0.00620423, Final residual = 0.000497603, No Iterations 3
smoothSolver:  Solving for k, Initial residual = 0.00855895, Final residual = 0.000611139, No Iterations 4
ExecutionTime = 1.46 s  ClockTime = 2 s

Time = 54

smoothSolver:  Solving for Ux, Initial residual = 0.00416274, Final residual = 0.000275443, No Iterations 6
smoothSolver:  Solving for Uy, Initial residual = 0.0186783, Final residual = 0.00133007, No Iterations 6
GAMG:  Solving for p, Initial residual = 0.0212493, Final residual = 0.00144038, No Iterations 3
time step continuity errors : sum local = 0.0720091, global = 0.0128464, cumulative = 1.27316
smoothSolver:  Solving for epsilon, Initial residual = 0.00601663, Final residual = 0.000473128, No Iterations 3
smoothSolver:  Solving for k, Initial residual = 0.00831098, Final residual = 0.000591525, No Iterations 4
ExecutionTime = 1.49 s  ClockTime = 2 s

Time = 55

smoothSolver:  Solving for Ux, Initial residual = 0.00411206, Final residual = 0.000272399, No Iterations 6
smoothSolver:  Solving for Uy, Initial residual = 0.0186768, Final residual = 0.00133633, No Iterations 6
GAMG:  Solving for p, Initial residual = 0.0210326, Final residual = 0.00166662, No Iterations 3
time step continuity errors : sum local = 0.0830442, global = 0.0173623, cumulative = 1.29052
smoothSolver:  Solving for epsilon, Initial residual = 0.0058784, Final residual = 0.000460527, No Iterations 3
smoothSolver:  Solving for k, Initial residual = 0.00802795, Final residual = 0.000571602, No Iterations 4
ExecutionTime = 1.51 s  ClockTime = 2 s

Time = 56

smoothSolver:  Solving for Ux, Initial residual = 0.00407621, Final residual = 0.000270125, No Iterations 6
smoothSolver:  Solving for Uy, Initial residual = 0.0186627, Final residual = 0.00134052, No Iterations 6
GAMG:  Solving for p, Initial residual = 0.0207589, Final residual = 0.00172019, No Iterations 3
time step continuity errors : sum local = 0.085055, global = 0.00277347, cumulative = 1.2933
smoothSolver:  Solving for epsilon, Initial residual = 0.00579776, Final residual = 0.000443593, No Iterations 3
smoothSolver:  Solving for k, Initial residual = 0.00781682, Final residual = 0.000554457, No Iterations 4
ExecutionTime = 1.54 s  ClockTime = 2 s

Time = 57

smoothSolver:  Solving for Ux, Initial residual = 0.00405325, Final residual = 0.000267439, No Iterations 6
smoothSolver:  Solving for Uy, Initial residual = 0.018766, Final residual = 0.00134631, No Iterations 6
GAMG:  Solving for p, Initial residual = 0.0246429, Final residual = 0.00143566, No Iterations 3
time step continuity errors : sum local = 0.0716782, global = 0.0172857, cumulative = 1.31058
smoothSolver:  Solving for epsilon, Initial residual = 0.00569087, Final residual = 0.000430435, No Iterations 3
smoothSolver:  Solving for k, Initial residual = 0.00757864, Final residual = 0.000539476, No Iterations 4
ExecutionTime = 1.56 s  ClockTime = 2 s

Time = 58

smoothSolver:  Solving for Ux, Initial residual = 0.00403117, Final residual = 0.00026664, No Iterations 6
smoothSolver:  Solving for Uy, Initial residual = 0.0187861, Final residual = 0.0013448, No Iterations 6
GAMG:  Solving for p, Initial residual = 0.0221658, Final residual = 0.00190194, No Iterations 3
time step continuity errors : sum local = 0.0929993, global = -0.00800606, cumulative = 1.30258
smoothSolver:  Solving for epsilon, Initial residual = 0.00550876, Final residual = 0.000420346, No Iterations 3
smoothSolver:  Solving for k, Initial residual = 0.00738031, Final residual = 0.000522058, No Iterations 4
ExecutionTime = 1.59 s  ClockTime = 2 s

Time = 59

smoothSolver:  Solving for Ux, Initial residual = 0.00399352, Final residual = 0.000263383, No Iterations 6
smoothSolver:  Solving for Uy, Initial residual = 0.0188606, Final residual = 0.00135442, No Iterations 6
GAMG:  Solving for p, Initial residual = 0.0222512, Final residual = 0.00158109, No Iterations 3
time step continuity errors : sum local = 0.076223, global = 0.0151891, cumulative = 1.31777
smoothSolver:  Solving for epsilon, Initial residual = 0.00542712, Final residual = 0.000410042, No Iterations 3
smoothSolver:  Solving for k, Initial residual = 0.00716882, Final residual = 0.000510252, No Iterations 4
ExecutionTime = 1.61 s  ClockTime = 2 s

Time = 60

smoothSolver:  Solving for Ux, Initial residual = 0.00395424, Final residual = 0.000261953, No Iterations 6
smoothSolver:  Solving for Uy, Initial residual = 0.0188557, Final residual = 0.00135904, No Iterations 6
GAMG:  Solving for p, Initial residual = 0.022026, Final residual = 0.00201643, No Iterations 3
time step continuity errors : sum local = 0.0975126, global = -0.00378048, cumulative = 1.31399
smoothSolver:  Solving for epsilon, Initial residual = 0.00537539, Final residual = 0.000404259, No Iterations 3
smoothSolver:  Solving for k, Initial residual = 0.00696634, Final residual = 0.000496832, No Iterations 4
ExecutionTime = 1.63 s  ClockTime = 2 s

Time = 61

smoothSolver:  Solving for Ux, Initial residual = 0.00392452, Final residual = 0.000258995, No Iterations 6
smoothSolver:  Solving for Uy, Initial residual = 0.0190253, Final residual = 0.00136993, No Iterations 6
GAMG:  Solving for p, Initial residual = 0.0216872, Final residual = 0.00148574, No Iterations 3
time step continuity errors : sum local = 0.071941, global = 0.0146591, cumulative = 1.32865
smoothSolver:  Solving for epsilon, Initial residual = 0.00525193, Final residual = 0.000394588, No Iterations 3
smoothSolver:  Solving for k, Initial residual = 0.00675662, Final residual = 0.000480815, No Iterations 4
ExecutionTime = 1.66 s  ClockTime = 2 s

Time = 62

smoothSolver:  Solving for Ux, Initial residual = 0.003898, Final residual = 0.000258388, No Iterations 6
smoothSolver:  Solving for Uy, Initial residual = 0.0189388, Final residual = 0.0013731, No Iterations 6
GAMG:  Solving for p, Initial residual = 0.019162, Final residual = 0.00186355, No Iterations 3
time step continuity errors : sum local = 0.089242, global = -0.0017298, cumulative = 1.32692
smoothSolver:  Solving for epsilon, Initial residual = 0.0051385, Final residual = 0.000388001, No Iterations 3
smoothSolver:  Solving for k, Initial residual = 0.00663008, Final residual = 0.000476295, No Iterations 4
ExecutionTime = 1.68 s  ClockTime = 2 s

Time = 63

smoothSolver:  Solving for Ux, Initial residual = 0.00386837, Final residual = 0.000255733, No Iterations 6
smoothSolver:  Solving for Uy, Initial residual = 0.0189499, Final residual = 0.00138316, No Iterations 6
GAMG:  Solving for p, Initial residual = 0.0190751, Final residual = 0.00144898, No Iterations 3
time step continuity errors : sum local = 0.0688784, global = 0.0150892, cumulative = 1.342
smoothSolver:  Solving for epsilon, Initial residual = 0.00504706, Final residual = 0.000382159, No Iterations 3
smoothSolver:  Solving for k, Initial residual = 0.00650355, Final residual = 0.000466336, No Iterations 4
ExecutionTime = 1.71 s  ClockTime = 2 s

Time = 64

smoothSolver:  Solving for Ux, Initial residual = 0.00384324, Final residual = 0.000254759, No Iterations 6
smoothSolver:  Solving for Uy, Initial residual = 0.0189887, Final residual = 0.00139114, No Iterations 6
GAMG:  Solving for p, Initial residual = 0.0191369, Final residual = 0.00183883, No Iterations 3
time step continuity errors : sum local = 0.0872038, global = -0.0108114, cumulative = 1.33119
smoothSolver:  Solving for epsilon, Initial residual = 0.00495947, Final residual = 0.000377027, No Iterations 3
smoothSolver:  Solving for k, Initial residual = 0.00634283, Final residual = 0.000458252, No Iterations 4
ExecutionTime = 1.73 s  ClockTime = 2 s

Time = 65

smoothSolver:  Solving for Ux, Initial residual = 0.00382571, Final residual = 0.00025265, No Iterations 6
smoothSolver:  Solving for Uy, Initial residual = 0.0191144, Final residual = 0.00140039, No Iterations 6
GAMG:  Solving for p, Initial residual = 0.0183397, Final residual = 0.00157627, No Iterations 3
time step continuity errors : sum local = 0.07417, global = 0.0138728, cumulative = 1.34507
smoothSolver:  Solving for epsilon, Initial residual = 0.00490198, Final residual = 0.000374079, No Iterations 3
smoothSolver:  Solving for k, Initial residual = 0.00621037, Final residual = 0.000451088, No Iterations 4
ExecutionTime = 1.76 s  ClockTime = 2 s

Time = 66

smoothSolver:  Solving for Ux, Initial residual = 0.00380654, Final residual = 0.000251907, No Iterations 6
smoothSolver:  Solving for Uy, Initial residual = 0.0192156, Final residual = 0.00140956, No Iterations 6
GAMG:  Solving for p, Initial residual = 0.018875, Final residual = 0.00179987, No Iterations 3
time step continuity errors : sum local = 0.084837, global = -0.0145642, cumulative = 1.3305
smoothSolver:  Solving for epsilon, Initial residual = 0.00483857, Final residual = 0.000371843, No Iterations 3
smoothSolver:  Solving for k, Initial residual = 0.00611649, Final residual = 0.000446247, No Iterations 4
ExecutionTime = 1.78 s  ClockTime = 2 s

Time = 67

smoothSolver:  Solving for Ux, Initial residual = 0.00378596, Final residual = 0.000249865, No Iterations 6
smoothSolver:  Solving for Uy, Initial residual = 0.019296, Final residual = 0.00141961, No Iterations 6
GAMG:  Solving for p, Initial residual = 0.0183524, Final residual = 0.00173687, No Iterations 3
time step continuity errors : sum local = 0.0812412, global = 0.0132974, cumulative = 1.3438
smoothSolver:  Solving for epsilon, Initial residual = 0.00478854, Final residual = 0.000370093, No Iterations 3
smoothSolver:  Solving for k, Initial residual = 0.00600871, Final residual = 0.000439, No Iterations 4
ExecutionTime = 1.81 s  ClockTime = 2 s

Time = 68

smoothSolver:  Solving for Ux, Initial residual = 0.00376986, Final residual = 0.00024932, No Iterations 6
smoothSolver:  Solving for Uy, Initial residual = 0.019432, Final residual = 0.00143009, No Iterations 6
GAMG:  Solving for p, Initial residual = 0.0186712, Final residual = 0.00172753, No Iterations 3
time step continuity errors : sum local = 0.0805448, global = -0.0138274, cumulative = 1.32997
smoothSolver:  Solving for epsilon, Initial residual = 0.0047552, Final residual = 0.000369355, No Iterations 3
smoothSolver:  Solving for k, Initial residual = 0.00590195, Final residual = 0.000434192, No Iterations 4
ExecutionTime = 1.84 s  ClockTime = 2 s

Time = 69

smoothSolver:  Solving for Ux, Initial residual = 0.00375404, Final residual = 0.000247694, No Iterations 6
smoothSolver:  Solving for Uy, Initial residual = 0.0195712, Final residual = 0.00144096, No Iterations 6
GAMG:  Solving for p, Initial residual = 0.0184257, Final residual = 0.00171597, No Iterations 3
time step continuity errors : sum local = 0.0799485, global = 0.0127179, cumulative = 1.34269
smoothSolver:  Solving for epsilon, Initial residual = 0.00471844, Final residual = 0.000371668, No Iterations 3
smoothSolver:  Solving for k, Initial residual = 0.00582275, Final residual = 0.000431141, No Iterations 4
ExecutionTime = 1.87 s  ClockTime = 2 s

Time = 70

smoothSolver:  Solving for Ux, Initial residual = 0.0037418, Final residual = 0.000247412, No Iterations 6
smoothSolver:  Solving for Uy, Initial residual = 0.0196937, Final residual = 0.00145273, No Iterations 6
GAMG:  Solving for p, Initial residual = 0.0193375, Final residual = 0.00171424, No Iterations 3
time step continuity errors : sum local = 0.0795899, global = -0.0127743, cumulative = 1.32992
smoothSolver:  Solving for epsilon, Initial residual = 0.0046717, Final residual = 0.000371852, No Iterations 3
smoothSolver:  Solving for k, Initial residual = 0.00575006, Final residual = 0.000428283, No Iterations 4
ExecutionTime = 1.9 s  ClockTime = 2 s

Time = 71

smoothSolver:  Solving for Ux, Initial residual = 0.00373157, Final residual = 0.000246108, No Iterations 6
smoothSolver:  Solving for Uy, Initial residual = 0.0198469, Final residual = 0.00146258, No Iterations 6
GAMG:  Solving for p, Initial residual = 0.018994, Final residual = 0.00168839, No Iterations 3
time step continuity errors : sum local = 0.0781353, global = 0.0121323, cumulative = 1.34205
smoothSolver:  Solving for epsilon, Initial residual = 0.00463857, Final residual = 0.000372766, No Iterations 3
smoothSolver:  Solving for k, Initial residual = 0.00570466, Final residual = 0.000427774, No Iterations 4
ExecutionTime = 1.92 s  ClockTime = 2 s

Time = 72

smoothSolver:  Solving for Ux, Initial residual = 0.00371969, Final residual = 0.000246098, No Iterations 6
smoothSolver:  Solving for Uy, Initial residual = 0.0199365, Final residual = 0.00147452, No Iterations 6
GAMG:  Solving for p, Initial residual = 0.0186857, Final residual = 0.00168467, No Iterations 3
time step continuity errors : sum local = 0.0779919, global = -0.0118116, cumulative = 1.33024
smoothSolver:  Solving for epsilon, Initial residual = 0.00460228, Final residual = 0.000373783, No Iterations 3
smoothSolver:  Solving for k, Initial residual = 0.00561964, Final residual = 0.00042541, No Iterations 4
ExecutionTime = 1.96 s  ClockTime = 2 s

Time = 73

smoothSolver:  Solving for Ux, Initial residual = 0.00371183, Final residual = 0.00024508, No Iterations 6
smoothSolver:  Solving for Uy, Initial residual = 0.0200962, Final residual = 0.00148479, No Iterations 6
GAMG:  Solving for p, Initial residual = 0.0184577, Final residual = 0.00165163, No Iterations 3
time step continuity errors : sum local = 0.076275, global = 0.0116838, cumulative = 1.34192
smoothSolver:  Solving for epsilon, Initial residual = 0.00456739, Final residual = 0.000374646, No Iterations 3
smoothSolver:  Solving for k, Initial residual = 0.00556303, Final residual = 0.000423018, No Iterations 4
ExecutionTime = 1.97 s  ClockTime = 2 s

Time = 74

smoothSolver:  Solving for Ux, Initial residual = 0.003707, Final residual = 0.000245325, No Iterations 6
smoothSolver:  Solving for Uy, Initial residual = 0.0202087, Final residual = 0.00149661, No Iterations 6
GAMG:  Solving for p, Initial residual = 0.018167, Final residual = 0.00160763, No Iterations 3
time step continuity errors : sum local = 0.0739601, global = -0.0110396, cumulative = 1.33088
smoothSolver:  Solving for epsilon, Initial residual = 0.00452763, Final residual = 0.000376007, No Iterations 3
smoothSolver:  Solving for k, Initial residual = 0.00553071, Final residual = 0.000424069, No Iterations 4
ExecutionTime = 1.99 s  ClockTime = 2 s

Time = 75

smoothSolver:  Solving for Ux, Initial residual = 0.00370193, Final residual = 0.000244546, No Iterations 6
smoothSolver:  Solving for Uy, Initial residual = 0.0203684, Final residual = 0.00150722, No Iterations 6
GAMG:  Solving for p, Initial residual = 0.0178144, Final residual = 0.00166027, No Iterations 3
time step continuity errors : sum local = 0.0765667, global = 0.0114613, cumulative = 1.34234
smoothSolver:  Solving for epsilon, Initial residual = 0.00450413, Final residual = 0.000378775, No Iterations 3
smoothSolver:  Solving for k, Initial residual = 0.00545317, Final residual = 0.000421482, No Iterations 4
ExecutionTime = 2.02 s  ClockTime = 2 s

Time = 76

smoothSolver:  Solving for Ux, Initial residual = 0.00369803, Final residual = 0.000244876, No Iterations 6
smoothSolver:  Solving for Uy, Initial residual = 0.0204729, Final residual = 0.00151958, No Iterations 6
GAMG:  Solving for p, Initial residual = 0.0178362, Final residual = 0.00157154, No Iterations 3
time step continuity errors : sum local = 0.0722764, global = -0.010418, cumulative = 1.33192
smoothSolver:  Solving for epsilon, Initial residual = 0.00448715, Final residual = 0.000380763, No Iterations 3
smoothSolver:  Solving for k, Initial residual = 0.00545101, Final residual = 0.000423609, No Iterations 4
ExecutionTime = 2.04 s  ClockTime = 2 s

Time = 77

smoothSolver:  Solving for Ux, Initial residual = 0.00369765, Final residual = 0.000244311, No Iterations 6
smoothSolver:  Solving for Uy, Initial residual = 0.0206783, Final residual = 0.0015308, No Iterations 6
GAMG:  Solving for p, Initial residual = 0.0181402, Final residual = 0.00172444, No Iterations 3
time step continuity errors : sum local = 0.0791553, global = 0.0114717, cumulative = 1.3434
smoothSolver:  Solving for epsilon, Initial residual = 0.00446457, Final residual = 0.000382261, No Iterations 3
smoothSolver:  Solving for k, Initial residual = 0.00541564, Final residual = 0.000424819, No Iterations 4
ExecutionTime = 2.07 s  ClockTime = 2 s

Time = 78

smoothSolver:  Solving for Ux, Initial residual = 0.00369689, Final residual = 0.000244721, No Iterations 6
smoothSolver:  Solving for Uy, Initial residual = 0.0207721, Final residual = 0.00154237, No Iterations 6
GAMG:  Solving for p, Initial residual = 0.0177491, Final residual = 0.00150338, No Iterations 3
time step continuity errors : sum local = 0.0691725, global = -0.0101495, cumulative = 1.33325
smoothSolver:  Solving for epsilon, Initial residual = 0.004423, Final residual = 0.00038352, No Iterations 3
smoothSolver:  Solving for k, Initial residual = 0.0053597, Final residual = 0.000423971, No Iterations 4
ExecutionTime = 2.1 s  ClockTime = 2 s

Time = 79

smoothSolver:  Solving for Ux, Initial residual = 0.00369493, Final residual = 0.000244187, No Iterations 6
smoothSolver:  Solving for Uy, Initial residual = 0.0209755, Final residual = 0.00155525, No Iterations 6
GAMG:  Solving for p, Initial residual = 0.0180648, Final residual = 0.00180178, No Iterations 3
time step continuity errors : sum local = 0.0829088, global = 0.0117203, cumulative = 1.34497
smoothSolver:  Solving for epsilon, Initial residual = 0.00441757, Final residual = 0.000387219, No Iterations 3
smoothSolver:  Solving for k, Initial residual = 0.00535162, Final residual = 0.000426926, No Iterations 4
ExecutionTime = 2.13 s  ClockTime = 2 s

Time = 80

smoothSolver:  Solving for Ux, Initial residual = 0.00369506, Final residual = 0.000244687, No Iterations 6
smoothSolver:  Solving for Uy, Initial residual = 0.0210798, Final residual = 0.00156662, No Iterations 6
GAMG:  Solving for p, Initial residual = 0.0180131, Final residual = 0.00148385, No Iterations 3
time step continuity errors : sum local = 0.0680726, global = -0.00976941, cumulative = 1.3352
smoothSolver:  Solving for epsilon, Initial residual = 0.00439919, Final residual = 0.000389354, No Iterations 3
smoothSolver:  Solving for k, Initial residual = 0.00533907, Final residual = 0.0004299, No Iterations 4
ExecutionTime = 2.17 s  ClockTime = 3 s

Time = 81

smoothSolver:  Solving for Ux, Initial residual = 0.00369338, Final residual = 0.000244064, No Iterations 6
smoothSolver:  Solving for Uy, Initial residual = 0.0213074, Final residual = 0.00158118, No Iterations 6
GAMG:  Solving for p, Initial residual = 0.018128, Final residual = 0.00178883, No Iterations 3
time step continuity errors : sum local = 0.0823266, global = 0.0120448, cumulative = 1.34724
smoothSolver:  Solving for epsilon, Initial residual = 0.00436877, Final residual = 0.000390716, No Iterations 3
smoothSolver:  Solving for k, Initial residual = 0.00528799, Final residual = 0.000428518, No Iterations 4
ExecutionTime = 2.21 s  ClockTime = 3 s

Time = 82

smoothSolver:  Solving for Ux, Initial residual = 0.00369121, Final residual = 0.000244526, No Iterations 6
smoothSolver:  Solving for Uy, Initial residual = 0.0214066, Final residual = 0.00159302, No Iterations 6
GAMG:  Solving for p, Initial residual = 0.0179361, Final residual = 0.00157149, No Iterations 3
time step continuity errors : sum local = 0.0723772, global = -0.00908801, cumulative = 1.33815
smoothSolver:  Solving for epsilon, Initial residual = 0.00435559, Final residual = 0.000393828, No Iterations 3
smoothSolver:  Solving for k, Initial residual = 0.00526514, Final residual = 0.00043028, No Iterations 4
ExecutionTime = 2.24 s  ClockTime = 3 s

Time = 83

smoothSolver:  Solving for Ux, Initial residual = 0.00369041, Final residual = 0.000243916, No Iterations 6
smoothSolver:  Solving for Uy, Initial residual = 0.02166, Final residual = 0.00160801, No Iterations 6
GAMG:  Solving for p, Initial residual = 0.0181907, Final residual = 0.00173947, No Iterations 3
time step continuity errors : sum local = 0.0797473, global = 0.0120524, cumulative = 1.35021
smoothSolver:  Solving for epsilon, Initial residual = 0.004335, Final residual = 0.00039605, No Iterations 3
smoothSolver:  Solving for k, Initial residual = 0.00524598, Final residual = 0.000432108, No Iterations 4
ExecutionTime = 2.28 s  ClockTime = 3 s

Time = 84

smoothSolver:  Solving for Ux, Initial residual = 0.00368534, Final residual = 0.000244154, No Iterations 6
smoothSolver:  Solving for Uy, Initial residual = 0.0217722, Final residual = 0.00162096, No Iterations 6
GAMG:  Solving for p, Initial residual = 0.017927, Final residual = 0.0016029, No Iterations 3
time step continuity errors : sum local = 0.0737787, global = -0.00854001, cumulative = 1.34167
smoothSolver:  Solving for epsilon, Initial residual = 0.00432011, Final residual = 0.000397186, No Iterations 3
smoothSolver:  Solving for k, Initial residual = 0.0052252, Final residual = 0.00043381, No Iterations 4
ExecutionTime = 2.3 s  ClockTime = 3 s

Time = 85

smoothSolver:  Solving for Ux, Initial residual = 0.00368385, Final residual = 0.0002435, No Iterations 6
smoothSolver:  Solving for Uy, Initial residual = 0.0220265, Final residual = 0.0016371, No Iterations 6
GAMG:  Solving for p, Initial residual = 0.0179878, Final residual = 0.00175142, No Iterations 3
time step continuity errors : sum local = 0.0807454, global = 0.0119345, cumulative = 1.3536
smoothSolver:  Solving for epsilon, Initial residual = 0.00429139, Final residual = 0.000399407, No Iterations 3
smoothSolver:  Solving for k, Initial residual = 0.00518624, Final residual = 0.000434649, No Iterations 4
ExecutionTime = 2.33 s  ClockTime = 3 s

Time = 86

smoothSolver:  Solving for Ux, Initial residual = 0.00367845, Final residual = 0.000243678, No Iterations 6
smoothSolver:  Solving for Uy, Initial residual = 0.0221577, Final residual = 0.00165063, No Iterations 6
GAMG:  Solving for p, Initial residual = 0.0180118, Final residual = 0.00155092, No Iterations 3
time step continuity errors : sum local = 0.0709387, global = -0.009101, cumulative = 1.3445
smoothSolver:  Solving for epsilon, Initial residual = 0.00427516, Final residual = 0.000399192, No Iterations 3
smoothSolver:  Solving for k, Initial residual = 0.00516388, Final residual = 0.000435599, No Iterations 4
ExecutionTime = 2.36 s  ClockTime = 3 s

Time = 87

smoothSolver:  Solving for Ux, Initial residual = 0.00367332, Final residual = 0.000242842, No Iterations 6
smoothSolver:  Solving for Uy, Initial residual = 0.0224278, Final residual = 0.00166849, No Iterations 6
GAMG:  Solving for p, Initial residual = 0.0176424, Final residual = 0.00134596, No Iterations 4
time step continuity errors : sum local = 0.0619439, global = -0.0119288, cumulative = 1.33257
smoothSolver:  Solving for epsilon, Initial residual = 0.00425228, Final residual = 0.000402109, No Iterations 3
smoothSolver:  Solving for k, Initial residual = 0.00517593, Final residual = 0.000440725, No Iterations 4
ExecutionTime = 2.38 s  ClockTime = 3 s

Time = 88

smoothSolver:  Solving for Ux, Initial residual = 0.00365771, Final residual = 0.000242476, No Iterations 6
smoothSolver:  Solving for Uy, Initial residual = 0.0225791, Final residual = 0.00168409, No Iterations 6
GAMG:  Solving for p, Initial residual = 0.0170339, Final residual = 0.00134746, No Iterations 4
time step continuity errors : sum local = 0.0620521, global = -0.012585, cumulative = 1.31999
smoothSolver:  Solving for epsilon, Initial residual = 0.00423732, Final residual = 0.000401832, No Iterations 3
smoothSolver:  Solving for k, Initial residual = 0.00516089, Final residual = 0.000442266, No Iterations 4
ExecutionTime = 2.4 s  ClockTime = 3 s

Time = 89

smoothSolver:  Solving for Ux, Initial residual = 0.00365922, Final residual = 0.000242408, No Iterations 6
smoothSolver:  Solving for Uy, Initial residual = 0.022796, Final residual = 0.00170063, No Iterations 6
GAMG:  Solving for p, Initial residual = 0.016533, Final residual = 0.00140311, No Iterations 4
time step continuity errors : sum local = 0.0643088, global = -0.0133535, cumulative = 1.30663
smoothSolver:  Solving for epsilon, Initial residual = 0.00420821, Final residual = 0.000403929, No Iterations 3
smoothSolver:  Solving for k, Initial residual = 0.00515171, Final residual = 0.000445487, No Iterations 4
ExecutionTime = 2.42 s  ClockTime = 3 s

Time = 90

smoothSolver:  Solving for Ux, Initial residual = 0.00364804, Final residual = 0.000242034, No Iterations 6
smoothSolver:  Solving for Uy, Initial residual = 0.0229628, Final residual = 0.00171789, No Iterations 6
GAMG:  Solving for p, Initial residual = 0.0161752, Final residual = 0.00146016, No Iterations 4
time step continuity errors : sum local = 0.0673942, global = -0.0138283, cumulative = 1.2928
smoothSolver:  Solving for epsilon, Initial residual = 0.00419079, Final residual = 0.000404062, No Iterations 3
smoothSolver:  Solving for k, Initial residual = 0.00513101, Final residual = 0.00044686, No Iterations 4
ExecutionTime = 2.45 s  ClockTime = 3 s

Time = 91

smoothSolver:  Solving for Ux, Initial residual = 0.00363829, Final residual = 0.000241645, No Iterations 6
smoothSolver:  Solving for Uy, Initial residual = 0.0231485, Final residual = 0.00173452, No Iterations 6
GAMG:  Solving for p, Initial residual = 0.0158399, Final residual = 0.00152066, No Iterations 4
time step continuity errors : sum local = 0.0702138, global = -0.0143357, cumulative = 1.27847
smoothSolver:  Solving for epsilon, Initial residual = 0.00415782, Final residual = 0.000403431, No Iterations 3
smoothSolver:  Solving for k, Initial residual = 0.00511541, Final residual = 0.000448637, No Iterations 4
ExecutionTime = 2.47 s  ClockTime = 3 s

Time = 92

smoothSolver:  Solving for Ux, Initial residual = 0.00362844, Final residual = 0.000241119, No Iterations 6
smoothSolver:  Solving for Uy, Initial residual = 0.023374, Final residual = 0.00175133, No Iterations 6
GAMG:  Solving for p, Initial residual = 0.0155486, Final residual = 0.00125801, No Iterations 5
time step continuity errors : sum local = 0.0577346, global = 0.0131679, cumulative = 1.29164
smoothSolver:  Solving for epsilon, Initial residual = 0.00413327, Final residual = 0.000402362, No Iterations 3
smoothSolver:  Solving for k, Initial residual = 0.00510065, Final residual = 0.000450441, No Iterations 4
ExecutionTime = 2.5 s  ClockTime = 3 s

Time = 93

smoothSolver:  Solving for Ux, Initial residual = 0.00362147, Final residual = 0.000240263, No Iterations 6
smoothSolver:  Solving for Uy, Initial residual = 0.023629, Final residual = 0.00177031, No Iterations 6
GAMG:  Solving for p, Initial residual = 0.0152342, Final residual = 0.00144606, No Iterations 3
time step continuity errors : sum local = 0.0665199, global = 0.0105496, cumulative = 1.30219
smoothSolver:  Solving for epsilon, Initial residual = 0.00412273, Final residual = 0.000403766, No Iterations 3
smoothSolver:  Solving for k, Initial residual = 0.00508623, Final residual = 0.00045157, No Iterations 4
ExecutionTime = 2.52 s  ClockTime = 3 s

Time = 94

smoothSolver:  Solving for Ux, Initial residual = 0.00361384, Final residual = 0.000240237, No Iterations 6
smoothSolver:  Solving for Uy, Initial residual = 0.0238272, Final residual = 0.00178894, No Iterations 6
GAMG:  Solving for p, Initial residual = 0.0151549, Final residual = 0.0011718, No Iterations 4
time step continuity errors : sum local = 0.0538471, global = -0.0113427, cumulative = 1.29084
smoothSolver:  Solving for epsilon, Initial residual = 0.00410983, Final residual = 0.000403254, No Iterations 3
smoothSolver:  Solving for k, Initial residual = 0.00509614, Final residual = 0.000454873, No Iterations 4
ExecutionTime = 2.55 s  ClockTime = 3 s

Time = 95

smoothSolver:  Solving for Ux, Initial residual = 0.00359353, Final residual = 0.000238776, No Iterations 6
smoothSolver:  Solving for Uy, Initial residual = 0.0240962, Final residual = 0.00180676, No Iterations 6
GAMG:  Solving for p, Initial residual = 0.0146612, Final residual = 0.00113693, No Iterations 5
time step continuity errors : sum local = 0.0520012, global = 0.010215, cumulative = 1.30106
smoothSolver:  Solving for epsilon, Initial residual = 0.00409951, Final residual = 0.000402921, No Iterations 3
smoothSolver:  Solving for k, Initial residual = 0.00506899, Final residual = 0.000454931, No Iterations 4
ExecutionTime = 2.57 s  ClockTime = 3 s

Time = 96

smoothSolver:  Solving for Ux, Initial residual = 0.0035874, Final residual = 0.000238721, No Iterations 6
smoothSolver:  Solving for Uy, Initial residual = 0.0243088, Final residual = 0.00182491, No Iterations 6
GAMG:  Solving for p, Initial residual = 0.0147829, Final residual = 0.00121711, No Iterations 4
time step continuity errors : sum local = 0.0558714, global = -0.0132292, cumulative = 1.28783
smoothSolver:  Solving for epsilon, Initial residual = 0.00407438, Final residual = 0.000400671, No Iterations 3
smoothSolver:  Solving for k, Initial residual = 0.00508736, Final residual = 0.000458261, No Iterations 4
ExecutionTime = 2.6 s  ClockTime = 3 s

Time = 97

smoothSolver:  Solving for Ux, Initial residual = 0.00357582, Final residual = 0.000237924, No Iterations 6
smoothSolver:  Solving for Uy, Initial residual = 0.0245102, Final residual = 0.00184185, No Iterations 6
GAMG:  Solving for p, Initial residual = 0.0146046, Final residual = 0.00123869, No Iterations 5
time step continuity errors : sum local = 0.056854, global = 0.0116517, cumulative = 1.29948
smoothSolver:  Solving for epsilon, Initial residual = 0.00405759, Final residual = 0.000399709, No Iterations 3
smoothSolver:  Solving for k, Initial residual = 0.00506867, Final residual = 0.000458439, No Iterations 4
ExecutionTime = 2.64 s  ClockTime = 3 s

Time = 98

smoothSolver:  Solving for Ux, Initial residual = 0.00356572, Final residual = 0.000237373, No Iterations 6
smoothSolver:  Solving for Uy, Initial residual = 0.0247581, Final residual = 0.00185856, No Iterations 6
GAMG:  Solving for p, Initial residual = 0.014619, Final residual = 0.00132241, No Iterations 4
time step continuity errors : sum local = 0.0601951, global = -0.014158, cumulative = 1.28532
smoothSolver:  Solving for epsilon, Initial residual = 0.00404273, Final residual = 0.000397611, No Iterations 3
smoothSolver:  Solving for k, Initial residual = 0.005071, Final residual = 0.000460175, No Iterations 4
ExecutionTime = 2.66 s  ClockTime = 3 s

Time = 99

smoothSolver:  Solving for Ux, Initial residual = 0.0035488, Final residual = 0.000236281, No Iterations 6
smoothSolver:  Solving for Uy, Initial residual = 0.0249766, Final residual = 0.00187745, No Iterations 6
GAMG:  Solving for p, Initial residual = 0.0146112, Final residual = 0.00130726, No Iterations 5
time step continuity errors : sum local = 0.0598757, global = 0.0125116, cumulative = 1.29783
smoothSolver:  Solving for epsilon, Initial residual = 0.00402588, Final residual = 0.000396078, No Iterations 3
smoothSolver:  Solving for k, Initial residual = 0.00506694, Final residual = 0.000460914, No Iterations 4
ExecutionTime = 2.69 s  ClockTime = 3 s

Time = 100

smoothSolver:  Solving for Ux, Initial residual = 0.00353514, Final residual = 0.000235705, No Iterations 6
smoothSolver:  Solving for Uy, Initial residual = 0.0251948, Final residual = 0.0018939, No Iterations 6
GAMG:  Solving for p, Initial residual = 0.0145177, Final residual = 0.00134978, No Iterations 4
time step continuity errors : sum local = 0.0614633, global = -0.0140822, cumulative = 1.28375
smoothSolver:  Solving for epsilon, Initial residual = 0.00400947, Final residual = 0.000393719, No Iterations 3
smoothSolver:  Solving for k, Initial residual = 0.00508459, Final residual = 0.000463237, No Iterations 4
ExecutionTime = 2.77 s  ClockTime = 3 s

Time = 101

smoothSolver:  Solving for Ux, Initial residual = 0.00351708, Final residual = 0.000234589, No Iterations 6
smoothSolver:  Solving for Uy, Initial residual = 0.0254208, Final residual = 0.00191089, No Iterations 6
GAMG:  Solving for p, Initial residual = 0.0144199, Final residual = 0.00133836, No Iterations 5
time step continuity errors : sum local = 0.0606547, global = 0.0124068, cumulative = 1.29616
smoothSolver:  Solving for epsilon, Initial residual = 0.003979, Final residual = 0.000389622, No Iterations 3
smoothSolver:  Solving for k, Initial residual = 0.0050866, Final residual = 0.000464215, No Iterations 4
ExecutionTime = 2.8 s  ClockTime = 3 s

Time = 102

smoothSolver:  Solving for Ux, Initial residual = 0.00350283, Final residual = 0.000233978, No Iterations 6
smoothSolver:  Solving for Uy, Initial residual = 0.0256375, Final residual = 0.00192887, No Iterations 6
GAMG:  Solving for p, Initial residual = 0.0144972, Final residual = 0.00136956, No Iterations 4
time step continuity errors : sum local = 0.0620966, global = -0.0137574, cumulative = 1.2824
smoothSolver:  Solving for epsilon, Initial residual = 0.00396496, Final residual = 0.000387537, No Iterations 3
smoothSolver:  Solving for k, Initial residual = 0.00509987, Final residual = 0.000465633, No Iterations 4
ExecutionTime = 2.83 s  ClockTime = 3 s

Time = 103

smoothSolver:  Solving for Ux, Initial residual = 0.00348341, Final residual = 0.000232832, No Iterations 6
smoothSolver:  Solving for Uy, Initial residual = 0.0258365, Final residual = 0.00194516, No Iterations 6
GAMG:  Solving for p, Initial residual = 0.0143939, Final residual = 0.00133885, No Iterations 5
time step continuity errors : sum local = 0.0606007, global = 0.0119424, cumulative = 1.29434
smoothSolver:  Solving for epsilon, Initial residual = 0.00394884, Final residual = 0.000385205, No Iterations 3
smoothSolver:  Solving for k, Initial residual = 0.00509437, Final residual = 0.000465573, No Iterations 4
ExecutionTime = 2.86 s  ClockTime = 3 s

Time = 104

smoothSolver:  Solving for Ux, Initial residual = 0.0034681, Final residual = 0.000232173, No Iterations 6
smoothSolver:  Solving for Uy, Initial residual = 0.0260717, Final residual = 0.0019613, No Iterations 6
GAMG:  Solving for p, Initial residual = 0.014377, Final residual = 0.00138561, No Iterations 4
time step continuity errors : sum local = 0.062213, global = -0.0134167, cumulative = 1.28093
smoothSolver:  Solving for epsilon, Initial residual = 0.00391968, Final residual = 0.000381093, No Iterations 3
smoothSolver:  Solving for k, Initial residual = 0.00511228, Final residual = 0.000467544, No Iterations 4
ExecutionTime = 2.88 s  ClockTime = 3 s

Time = 105

smoothSolver:  Solving for Ux, Initial residual = 0.00344833, Final residual = 0.000231013, No Iterations 6
smoothSolver:  Solving for Uy, Initial residual = 0.0262696, Final residual = 0.00197837, No Iterations 6
GAMG:  Solving for p, Initial residual = 0.0145546, Final residual = 0.0013292, No Iterations 5
time step continuity errors : sum local = 0.0599537, global = 0.0114512, cumulative = 1.29238
smoothSolver:  Solving for epsilon, Initial residual = 0.00390698, Final residual = 0.000378374, No Iterations 3
smoothSolver:  Solving for k, Initial residual = 0.00510392, Final residual = 0.00046648, No Iterations 4
ExecutionTime = 2.91 s  ClockTime = 3 s

Time = 106

smoothSolver:  Solving for Ux, Initial residual = 0.00343284, Final residual = 0.000230392, No Iterations 6
smoothSolver:  Solving for Uy, Initial residual = 0.0264693, Final residual = 0.00199404, No Iterations 6
GAMG:  Solving for p, Initial residual = 0.0143427, Final residual = 0.00134705, No Iterations 4
time step continuity errors : sum local = 0.060337, global = -0.0127295, cumulative = 1.27965
smoothSolver:  Solving for epsilon, Initial residual = 0.0038884, Final residual = 0.000375487, No Iterations 3
smoothSolver:  Solving for k, Initial residual = 0.00513012, Final residual = 0.000468478, No Iterations 4
ExecutionTime = 2.94 s  ClockTime = 3 s

Time = 107

smoothSolver:  Solving for Ux, Initial residual = 0.00341064, Final residual = 0.000229156, No Iterations 6
smoothSolver:  Solving for Uy, Initial residual = 0.0266772, Final residual = 0.00200929, No Iterations 6
GAMG:  Solving for p, Initial residual = 0.0143115, Final residual = 0.00130188, No Iterations 5
time step continuity errors : sum local = 0.0580273, global = 0.0106016, cumulative = 1.29025
smoothSolver:  Solving for epsilon, Initial residual = 0.00386949, Final residual = 0.000371822, No Iterations 3
smoothSolver:  Solving for k, Initial residual = 0.00514043, Final residual = 0.000468908, No Iterations 4
ExecutionTime = 2.96 s  ClockTime = 3 s

Time = 108

smoothSolver:  Solving for Ux, Initial residual = 0.0033964, Final residual = 0.000228657, No Iterations 6
smoothSolver:  Solving for Uy, Initial residual = 0.0268793, Final residual = 0.00202711, No Iterations 6
GAMG:  Solving for p, Initial residual = 0.0144635, Final residual = 0.00128808, No Iterations 4
time step continuity errors : sum local = 0.0574004, global = -0.0117651, cumulative = 1.27849
smoothSolver:  Solving for epsilon, Initial residual = 0.0038538, Final residual = 0.000368754, No Iterations 3
smoothSolver:  Solving for k, Initial residual = 0.00515852, Final residual = 0.000469677, No Iterations 4
ExecutionTime = 2.99 s  ClockTime = 3 s

Time = 109

smoothSolver:  Solving for Ux, Initial residual = 0.00337273, Final residual = 0.000227413, No Iterations 6
smoothSolver:  Solving for Uy, Initial residual = 0.0270562, Final residual = 0.00204152, No Iterations 6
GAMG:  Solving for p, Initial residual = 0.0143025, Final residual = 0.00123141, No Iterations 5
time step continuity errors : sum local = 0.0546773, global = 0.00943634, cumulative = 1.28792
smoothSolver:  Solving for epsilon, Initial residual = 0.00384519, Final residual = 0.0003683, No Iterations 3
smoothSolver:  Solving for k, Initial residual = 0.00517612, Final residual = 0.000470022, No Iterations 4
ExecutionTime = 3.01 s  ClockTime = 3 s

Time = 110

smoothSolver:  Solving for Ux, Initial residual = 0.00335915, Final residual = 0.000227033, No Iterations 6
smoothSolver:  Solving for Uy, Initial residual = 0.0272694, Final residual = 0.00205901, No Iterations 6
GAMG:  Solving for p, Initial residual = 0.0143891, Final residual = 0.00118069, No Iterations 4
time step continuity errors : sum local = 0.052032, global = -0.0108908, cumulative = 1.27703
smoothSolver:  Solving for epsilon, Initial residual = 0.00382566, Final residual = 0.000363771, No Iterations 3
smoothSolver:  Solving for k, Initial residual = 0.00519298, Final residual = 0.000470993, No Iterations 4
ExecutionTime = 3.04 s  ClockTime = 3 s

Time = 111

smoothSolver:  Solving for Ux, Initial residual = 0.00333513, Final residual = 0.000225919, No Iterations 6
smoothSolver:  Solving for Uy, Initial residual = 0.0274591, Final residual = 0.00207549, No Iterations 6
GAMG:  Solving for p, Initial residual = 0.0145237, Final residual = 0.00113844, No Iterations 5
time step continuity errors : sum local = 0.0502148, global = 0.00749388, cumulative = 1.28452
smoothSolver:  Solving for epsilon, Initial residual = 0.00381926, Final residual = 0.00036287, No Iterations 3
smoothSolver:  Solving for k, Initial residual = 0.00520131, Final residual = 0.000470194, No Iterations 4
ExecutionTime = 3.07 s  ClockTime = 3 s

Time = 112

smoothSolver:  Solving for Ux, Initial residual = 0.0033235, Final residual = 0.000225814, No Iterations 6
smoothSolver:  Solving for Uy, Initial residual = 0.0276377, Final residual = 0.00209206, No Iterations 6
GAMG:  Solving for p, Initial residual = 0.0144399, Final residual = 0.00118046, No Iterations 4
time step continuity errors : sum local = 0.051802, global = -0.0102062, cumulative = 1.27432
smoothSolver:  Solving for epsilon, Initial residual = 0.00381462, Final residual = 0.000360949, No Iterations 3
smoothSolver:  Solving for k, Initial residual = 0.00521447, Final residual = 0.000470127, No Iterations 4
ExecutionTime = 3.09 s  ClockTime = 3 s

Time = 113

smoothSolver:  Solving for Ux, Initial residual = 0.00330184, Final residual = 0.000224876, No Iterations 6
smoothSolver:  Solving for Uy, Initial residual = 0.0278249, Final residual = 0.00210668, No Iterations 6
GAMG:  Solving for p, Initial residual = 0.0144918, Final residual = 0.00109887, No Iterations 5
time step continuity errors : sum local = 0.0479609, global = 0.00670236, cumulative = 1.28102
smoothSolver:  Solving for epsilon, Initial residual = 0.00381079, Final residual = 0.000359978, No Iterations 3
smoothSolver:  Solving for k, Initial residual = 0.00522162, Final residual = 0.000469024, No Iterations 4
ExecutionTime = 3.11 s  ClockTime = 3 s

Time = 114

smoothSolver:  Solving for Ux, Initial residual = 0.00329335, Final residual = 0.000224881, No Iterations 6
smoothSolver:  Solving for Uy, Initial residual = 0.0280011, Final residual = 0.00212402, No Iterations 6
GAMG:  Solving for p, Initial residual = 0.0148728, Final residual = 0.00109467, No Iterations 4
time step continuity errors : sum local = 0.0479039, global = -0.00898804, cumulative = 1.27203
smoothSolver:  Solving for epsilon, Initial residual = 0.00379614, Final residual = 0.000354923, No Iterations 3
smoothSolver:  Solving for k, Initial residual = 0.00524375, Final residual = 0.000469196, No Iterations 4
ExecutionTime = 3.14 s  ClockTime = 3 s

Time = 115

smoothSolver:  Solving for Ux, Initial residual = 0.00327481, Final residual = 0.000224256, No Iterations 6
smoothSolver:  Solving for Uy, Initial residual = 0.0281699, Final residual = 0.00213727, No Iterations 6
GAMG:  Solving for p, Initial residual = 0.0146594, Final residual = 0.00102944, No Iterations 5
time step continuity errors : sum local = 0.0448492, global = 0.00591607, cumulative = 1.27795
smoothSolver:  Solving for epsilon, Initial residual = 0.00378938, Final residual = 0.000354129, No Iterations 3
smoothSolver:  Solving for k, Initial residual = 0.00525474, Final residual = 0.000468066, No Iterations 4
ExecutionTime = 3.17 s  ClockTime = 4 s

Time = 116

smoothSolver:  Solving for Ux, Initial residual = 0.00327145, Final residual = 0.000224537, No Iterations 6
smoothSolver:  Solving for Uy, Initial residual = 0.0283533, Final residual = 0.00215253, No Iterations 6
GAMG:  Solving for p, Initial residual = 0.0148676, Final residual = 0.00148362, No Iterations 3
time step continuity errors : sum local = 0.0644007, global = 0.00654729, cumulative = 1.2845
smoothSolver:  Solving for epsilon, Initial residual = 0.00378218, Final residual = 0.000351847, No Iterations 3
smoothSolver:  Solving for k, Initial residual = 0.00527699, Final residual = 0.000468068, No Iterations 4
[...]

Time = 259

smoothSolver:  Solving for Ux, Initial residual = 0.000311304, Final residual = 2.12925e-05, No Iterations 6
smoothSolver:  Solving for Uy, Initial residual = 0.00256839, Final residual = 0.0001811, No Iterations 6
GAMG:  Solving for p, Initial residual = 0.00238148, Final residual = 0.000167383, No Iterations 5
time step continuity errors : sum local = 0.0070975, global = 0.000325284, cumulative = 1.19768
smoothSolver:  Solving for epsilon, Initial residual = 0.000328021, Final residual = 2.38626e-05, No Iterations 3
smoothSolver:  Solving for k, Initial residual = 0.000557644, Final residual = 3.44991e-05, No Iterations 4
ExecutionTime = 7.75 s  ClockTime = 8 s

Time = 260

smoothSolver:  Solving for Ux, Initial residual = 0.000303622, Final residual = 2.07816e-05, No Iterations 6
smoothSolver:  Solving for Uy, Initial residual = 0.00252108, Final residual = 0.000173787, No Iterations 6
GAMG:  Solving for p, Initial residual = 0.00338586, Final residual = 0.000333506, No Iterations 3
time step continuity errors : sum local = 0.0141763, global = 0.000864491, cumulative = 1.19855
smoothSolver:  Solving for epsilon, Initial residual = 0.000316418, Final residual = 2.29727e-05, No Iterations 3
smoothSolver:  Solving for k, Initial residual = 0.000541951, Final residual = 3.3395e-05, No Iterations 4
ExecutionTime = 7.78 s  ClockTime = 8 s

Time = 261

smoothSolver:  Solving for Ux, Initial residual = 0.000294405, Final residual = 2.0294e-05, No Iterations 6
smoothSolver:  Solving for Uy, Initial residual = 0.00241947, Final residual = 0.000166301, No Iterations 6
GAMG:  Solving for p, Initial residual = 0.00235763, Final residual = 0.00017131, No Iterations 5
time step continuity errors : sum local = 0.00727936, global = 0.000359899, cumulative = 1.19891
smoothSolver:  Solving for epsilon, Initial residual = 0.00030518, Final residual = 2.22683e-05, No Iterations 3
smoothSolver:  Solving for k, Initial residual = 0.000525831, Final residual = 3.23137e-05, No Iterations 4
ExecutionTime = 7.82 s  ClockTime = 8 s

Time = 262

smoothSolver:  Solving for Ux, Initial residual = 0.00028547, Final residual = 1.96705e-05, No Iterations 6
smoothSolver:  Solving for Uy, Initial residual = 0.00232073, Final residual = 0.000158985, No Iterations 6
GAMG:  Solving for p, Initial residual = 0.00232064, Final residual = 0.000214805, No Iterations 4
time step continuity errors : sum local = 0.00912272, global = -0.000618807, cumulative = 1.19829
smoothSolver:  Solving for epsilon, Initial residual = 0.000296715, Final residual = 2.14146e-05, No Iterations 3
smoothSolver:  Solving for k, Initial residual = 0.000510513, Final residual = 3.13057e-05, No Iterations 4
ExecutionTime = 7.86 s  ClockTime = 8 s

Time = 263

smoothSolver:  Solving for Ux, Initial residual = 0.000278276, Final residual = 1.92114e-05, No Iterations 6
smoothSolver:  Solving for Uy, Initial residual = 0.00225633, Final residual = 0.000151071, No Iterations 6
GAMG:  Solving for p, Initial residual = 0.00278212, Final residual = 0.000225509, No Iterations 4
time step continuity errors : sum local = 0.00958571, global = -0.000711118, cumulative = 1.19758
smoothSolver:  Solving for epsilon, Initial residual = 0.000286972, Final residual = 2.05026e-05, No Iterations 3
smoothSolver:  Solving for k, Initial residual = 0.000494702, Final residual = 3.01386e-05, No Iterations 4
ExecutionTime = 7.89 s  ClockTime = 8 s

Time = 264

smoothSolver:  Solving for Ux, Initial residual = 0.000270647, Final residual = 1.87337e-05, No Iterations 6
smoothSolver:  Solving for Uy, Initial residual = 0.0021481, Final residual = 0.000143597, No Iterations 6
GAMG:  Solving for p, Initial residual = 0.00219085, Final residual = 0.000164273, No Iterations 5
time step continuity errors : sum local = 0.00699043, global = 0.000572536, cumulative = 1.19815
smoothSolver:  Solving for epsilon, Initial residual = 0.000277561, Final residual = 1.97348e-05, No Iterations 3
smoothSolver:  Solving for k, Initial residual = 0.000478748, Final residual = 2.91523e-05, No Iterations 4
ExecutionTime = 7.93 s  ClockTime = 8 s

Time = 265

smoothSolver:  Solving for Ux, Initial residual = 0.000263805, Final residual = 1.81826e-05, No Iterations 6
smoothSolver:  Solving for Uy, Initial residual = 0.00204312, Final residual = 0.000137018, No Iterations 6
GAMG:  Solving for p, Initial residual = 0.0019315, Final residual = 0.000188383, No Iterations 4
time step continuity errors : sum local = 0.00800722, global = -0.000591443, cumulative = 1.19756
smoothSolver:  Solving for epsilon, Initial residual = 0.000267613, Final residual = 1.88745e-05, No Iterations 3
smoothSolver:  Solving for k, Initial residual = 0.00046268, Final residual = 2.8117e-05, No Iterations 4
ExecutionTime = 7.96 s  ClockTime = 8 s

Time = 266

smoothSolver:  Solving for Ux, Initial residual = 0.00025739, Final residual = 1.76469e-05, No Iterations 6
smoothSolver:  Solving for Uy, Initial residual = 0.00197348, Final residual = 0.00012998, No Iterations 6
GAMG:  Solving for p, Initial residual = 0.00205189, Final residual = 0.000198832, No Iterations 4
time step continuity errors : sum local = 0.0084543, global = -0.000673872, cumulative = 1.19688
smoothSolver:  Solving for epsilon, Initial residual = 0.000256942, Final residual = 1.81108e-05, No Iterations 3
smoothSolver:  Solving for k, Initial residual = 0.000446428, Final residual = 2.71404e-05, No Iterations 4
ExecutionTime = 7.99 s  ClockTime = 8 s

Time = 267

smoothSolver:  Solving for Ux, Initial residual = 0.000251754, Final residual = 1.71341e-05, No Iterations 6
smoothSolver:  Solving for Uy, Initial residual = 0.00189755, Final residual = 0.000123994, No Iterations 6
GAMG:  Solving for p, Initial residual = 0.00278851, Final residual = 0.00020264, No Iterations 4
time step continuity errors : sum local = 0.0086369, global = -0.000695841, cumulative = 1.19619
smoothSolver:  Solving for epsilon, Initial residual = 0.000246637, Final residual = 1.72735e-05, No Iterations 3
smoothSolver:  Solving for k, Initial residual = 0.000429793, Final residual = 2.60239e-05, No Iterations 4
ExecutionTime = 8.03 s  ClockTime = 8 s

Time = 268

smoothSolver:  Solving for Ux, Initial residual = 0.000244063, Final residual = 1.65205e-05, No Iterations 6
smoothSolver:  Solving for Uy, Initial residual = 0.00179722, Final residual = 0.000118453, No Iterations 6
GAMG:  Solving for p, Initial residual = 0.00206306, Final residual = 0.000191029, No Iterations 4
time step continuity errors : sum local = 0.00812188, global = -0.000662508, cumulative = 1.19552
smoothSolver:  Solving for epsilon, Initial residual = 0.00023749, Final residual = 1.64832e-05, No Iterations 3
smoothSolver:  Solving for k, Initial residual = 0.000413644, Final residual = 2.5054e-05, No Iterations 4
ExecutionTime = 8.06 s  ClockTime = 8 s

Time = 269

smoothSolver:  Solving for Ux, Initial residual = 0.000236333, Final residual = 1.58607e-05, No Iterations 6
smoothSolver:  Solving for Uy, Initial residual = 0.00174619, Final residual = 0.000112652, No Iterations 6
GAMG:  Solving for p, Initial residual = 0.00221156, Final residual = 0.000182697, No Iterations 4
time step continuity errors : sum local = 0.00776159, global = -0.000667468, cumulative = 1.19486
smoothSolver:  Solving for epsilon, Initial residual = 0.000230339, Final residual = 1.57475e-05, No Iterations 3
smoothSolver:  Solving for k, Initial residual = 0.000399058, Final residual = 2.41014e-05, No Iterations 4
ExecutionTime = 8.1 s  ClockTime = 8 s

Time = 270

smoothSolver:  Solving for Ux, Initial residual = 0.000228829, Final residual = 1.52153e-05, No Iterations 6
smoothSolver:  Solving for Uy, Initial residual = 0.00169094, Final residual = 0.000166009, No Iterations 5
GAMG:  Solving for p, Initial residual = 0.00246915, Final residual = 0.000243288, No Iterations 3
time step continuity errors : sum local = 0.0103451, global = 0.000818983, cumulative = 1.19568
smoothSolver:  Solving for epsilon, Initial residual = 0.000221956, Final residual = 1.49825e-05, No Iterations 3
smoothSolver:  Solving for k, Initial residual = 0.000383099, Final residual = 2.30927e-05, No Iterations 4
ExecutionTime = 8.12 s  ClockTime = 8 s

Time = 271

smoothSolver:  Solving for Ux, Initial residual = 0.000219755, Final residual = 1.45394e-05, No Iterations 6
smoothSolver:  Solving for Uy, Initial residual = 0.00160595, Final residual = 0.000104181, No Iterations 6
GAMG:  Solving for p, Initial residual = 0.00178411, Final residual = 0.000174834, No Iterations 4
time step continuity errors : sum local = 0.00742565, global = 0.000844979, cumulative = 1.19652
smoothSolver:  Solving for epsilon, Initial residual = 0.000213431, Final residual = 1.43149e-05, No Iterations 3
smoothSolver:  Solving for k, Initial residual = 0.000368806, Final residual = 2.22108e-05, No Iterations 4
ExecutionTime = 8.16 s  ClockTime = 9 s

Time = 272

smoothSolver:  Solving for Ux, Initial residual = 0.0002114, Final residual = 1.37923e-05, No Iterations 6
smoothSolver:  Solving for Uy, Initial residual = 0.00153775, Final residual = 9.99099e-05, No Iterations 6
GAMG:  Solving for p, Initial residual = 0.0017284, Final residual = 0.000150785, No Iterations 4
time step continuity errors : sum local = 0.00639816, global = 0.000720744, cumulative = 1.19724
smoothSolver:  Solving for epsilon, Initial residual = 0.000203903, Final residual = 1.36744e-05, No Iterations 3
smoothSolver:  Solving for k, Initial residual = 0.00035454, Final residual = 2.14164e-05, No Iterations 4
ExecutionTime = 8.19 s  ClockTime = 9 s

Time = 273

smoothSolver:  Solving for Ux, Initial residual = 0.000204431, Final residual = 1.32362e-05, No Iterations 6
smoothSolver:  Solving for Uy, Initial residual = 0.00149103, Final residual = 0.000148246, No Iterations 5
GAMG:  Solving for p, Initial residual = 0.00236185, Final residual = 0.000203908, No Iterations 3
time step continuity errors : sum local = 0.00865603, global = -0.00112834, cumulative = 1.19611
smoothSolver:  Solving for epsilon, Initial residual = 0.000196316, Final residual = 1.30807e-05, No Iterations 3
smoothSolver:  Solving for k, Initial residual = 0.000340545, Final residual = 2.05464e-05, No Iterations 4
ExecutionTime = 8.22 s  ClockTime = 9 s

Time = 274

smoothSolver:  Solving for Ux, Initial residual = 0.000196327, Final residual = 1.26522e-05, No Iterations 6
smoothSolver:  Solving for Uy, Initial residual = 0.0014329, Final residual = 9.42455e-05, No Iterations 6
GAMG:  Solving for p, Initial residual = 0.00174352, Final residual = 0.000143454, No Iterations 4
time step continuity errors : sum local = 0.00609187, global = 0.000712198, cumulative = 1.19683
smoothSolver:  Solving for epsilon, Initial residual = 0.000189158, Final residual = 1.24806e-05, No Iterations 3
smoothSolver:  Solving for k, Initial residual = 0.000327064, Final residual = 1.97923e-05, No Iterations 4
ExecutionTime = 8.25 s  ClockTime = 9 s

Time = 275

smoothSolver:  Solving for Ux, Initial residual = 0.000187528, Final residual = 1.20019e-05, No Iterations 6
smoothSolver:  Solving for Uy, Initial residual = 0.00135903, Final residual = 9.10597e-05, No Iterations 6
GAMG:  Solving for p, Initial residual = 0.00177928, Final residual = 0.000147492, No Iterations 4
time step continuity errors : sum local = 0.00625327, global = 0.000779661, cumulative = 1.19761
smoothSolver:  Solving for epsilon, Initial residual = 0.000183736, Final residual = 1.19728e-05, No Iterations 3
smoothSolver:  Solving for k, Initial residual = 0.000314671, Final residual = 1.89999e-05, No Iterations 4
ExecutionTime = 8.28 s  ClockTime = 9 s

Time = 276

smoothSolver:  Solving for Ux, Initial residual = 0.000179884, Final residual = 1.78712e-05, No Iterations 5
smoothSolver:  Solving for Uy, Initial residual = 0.0013164, Final residual = 8.83396e-05, No Iterations 6
GAMG:  Solving for p, Initial residual = 0.00165672, Final residual = 0.000144144, No Iterations 4
time step continuity errors : sum local = 0.00610628, global = 0.000755086, cumulative = 1.19836
smoothSolver:  Solving for epsilon, Initial residual = 0.000179897, Final residual = 1.15254e-05, No Iterations 3
smoothSolver:  Solving for k, Initial residual = 0.000303456, Final residual = 1.83908e-05, No Iterations 4
ExecutionTime = 8.31 s  ClockTime = 9 s

Time = 277

smoothSolver:  Solving for Ux, Initial residual = 0.000173848, Final residual = 1.71762e-05, No Iterations 5
smoothSolver:  Solving for Uy, Initial residual = 0.00127028, Final residual = 8.54057e-05, No Iterations 6
GAMG:  Solving for p, Initial residual = 0.00207779, Final residual = 0.000191397, No Iterations 3
time step continuity errors : sum local = 0.00811884, global = -0.000596213, cumulative = 1.19776
smoothSolver:  Solving for epsilon, Initial residual = 0.000174173, Final residual = 1.10743e-05, No Iterations 3
smoothSolver:  Solving for k, Initial residual = 0.000291765, Final residual = 1.76606e-05, No Iterations 4
ExecutionTime = 8.35 s  ClockTime = 9 s

Time = 278

smoothSolver:  Solving for Ux, Initial residual = 0.00016743, Final residual = 1.64926e-05, No Iterations 5
smoothSolver:  Solving for Uy, Initial residual = 0.00124379, Final residual = 8.33256e-05, No Iterations 6
GAMG:  Solving for p, Initial residual = 0.00154623, Final residual = 0.000113394, No Iterations 5
time step continuity errors : sum local = 0.00480216, global = -0.000363427, cumulative = 1.1974
smoothSolver:  Solving for epsilon, Initial residual = 0.000165974, Final residual = 1.06405e-05, No Iterations 3
smoothSolver:  Solving for k, Initial residual = 0.000279974, Final residual = 1.70469e-05, No Iterations 4
ExecutionTime = 8.39 s  ClockTime = 9 s

Time = 279

smoothSolver:  Solving for Ux, Initial residual = 0.000158876, Final residual = 1.55816e-05, No Iterations 5
smoothSolver:  Solving for Uy, Initial residual = 0.00119257, Final residual = 8.17252e-05, No Iterations 6
GAMG:  Solving for p, Initial residual = 0.00149867, Final residual = 0.00013536, No Iterations 4
time step continuity errors : sum local = 0.00572714, global = 0.000676337, cumulative = 1.19808
smoothSolver:  Solving for epsilon, Initial residual = 0.000161222, Final residual = 1.03251e-05, No Iterations 3
smoothSolver:  Solving for k, Initial residual = 0.000270324, Final residual = 1.6525e-05, No Iterations 4
ExecutionTime = 8.42 s  ClockTime = 9 s

Time = 280

smoothSolver:  Solving for Ux, Initial residual = 0.000152889, Final residual = 1.49719e-05, No Iterations 5
smoothSolver:  Solving for Uy, Initial residual = 0.00115328, Final residual = 8.03327e-05, No Iterations 6
GAMG:  Solving for p, Initial residual = 0.00197815, Final residual = 0.000177706, No Iterations 3
time step continuity errors : sum local = 0.00752499, global = -0.000641876, cumulative = 1.19744
smoothSolver:  Solving for epsilon, Initial residual = 0.000157407, Final residual = 9.99289e-06, No Iterations 3
smoothSolver:  Solving for k, Initial residual = 0.000260388, Final residual = 1.5915e-05, No Iterations 4
ExecutionTime = 8.46 s  ClockTime = 9 s

Time = 281

smoothSolver:  Solving for Ux, Initial residual = 0.00014741, Final residual = 1.44417e-05, No Iterations 5
smoothSolver:  Solving for Uy, Initial residual = 0.00114274, Final residual = 7.89659e-05, No Iterations 6
GAMG:  Solving for p, Initial residual = 0.00151519, Final residual = 0.000149115, No Iterations 4
time step continuity errors : sum local = 0.00630262, global = 0.000758049, cumulative = 1.19819
smoothSolver:  Solving for epsilon, Initial residual = 0.000153948, Final residual = 9.72101e-06, No Iterations 3
smoothSolver:  Solving for k, Initial residual = 0.000252556, Final residual = 1.54336e-05, No Iterations 4
ExecutionTime = 8.49 s  ClockTime = 9 s

Time = 282

smoothSolver:  Solving for Ux, Initial residual = 0.00014016, Final residual = 1.37393e-05, No Iterations 5
smoothSolver:  Solving for Uy, Initial residual = 0.00111097, Final residual = 7.65495e-05, No Iterations 6
GAMG:  Solving for p, Initial residual = 0.00178377, Final residual = 0.000171156, No Iterations 3
time step continuity errors : sum local = 0.00723386, global = -0.000554157, cumulative = 1.19764
smoothSolver:  Solving for epsilon, Initial residual = 0.000151334, Final residual = 9.53481e-06, No Iterations 3
smoothSolver:  Solving for k, Initial residual = 0.000244919, Final residual = 1.49845e-05, No Iterations 4
ExecutionTime = 8.51 s  ClockTime = 9 s

Time = 283

smoothSolver:  Solving for Ux, Initial residual = 0.000135483, Final residual = 1.33256e-05, No Iterations 5
smoothSolver:  Solving for Uy, Initial residual = 0.00108557, Final residual = 7.434e-05, No Iterations 6
GAMG:  Solving for p, Initial residual = 0.00131499, Final residual = 9.07608e-05, No Iterations 5
time step continuity errors : sum local = 0.00383137, global = -0.000309816, cumulative = 1.19733
smoothSolver:  Solving for epsilon, Initial residual = 0.000148276, Final residual = 9.42042e-06, No Iterations 3
smoothSolver:  Solving for k, Initial residual = 0.000239055, Final residual = 1.46259e-05, No Iterations 4
ExecutionTime = 8.54 s  ClockTime = 9 s

Time = 284

smoothSolver:  Solving for Ux, Initial residual = 0.000131528, Final residual = 1.28465e-05, No Iterations 5
smoothSolver:  Solving for Uy, Initial residual = 0.00109328, Final residual = 7.21573e-05, No Iterations 6
GAMG:  Solving for p, Initial residual = 0.00209858, Final residual = 0.000149929, No Iterations 3
time step continuity errors : sum local = 0.00633308, global = -0.00054734, cumulative = 1.19678
smoothSolver:  Solving for epsilon, Initial residual = 0.000144241, Final residual = 9.28533e-06, No Iterations 3
smoothSolver:  Solving for k, Initial residual = 0.000232478, Final residual = 1.42827e-05, No Iterations 4
ExecutionTime = 8.56 s  ClockTime = 9 s

Time = 285

smoothSolver:  Solving for Ux, Initial residual = 0.000126947, Final residual = 1.2558e-05, No Iterations 5
smoothSolver:  Solving for Uy, Initial residual = 0.00106245, Final residual = 6.98314e-05, No Iterations 6
GAMG:  Solving for p, Initial residual = 0.00160256, Final residual = 0.000152197, No Iterations 3
time step continuity errors : sum local = 0.00642919, global = -0.000624776, cumulative = 1.19616
smoothSolver:  Solving for epsilon, Initial residual = 0.00013895, Final residual = 9.16644e-06, No Iterations 3
smoothSolver:  Solving for k, Initial residual = 0.00022617, Final residual = 1.38372e-05, No Iterations 4
ExecutionTime = 8.59 s  ClockTime = 9 s

Time = 286

smoothSolver:  Solving for Ux, Initial residual = 0.000122723, Final residual = 1.22668e-05, No Iterations 5
smoothSolver:  Solving for Uy, Initial residual = 0.00100678, Final residual = 6.74008e-05, No Iterations 6
GAMG:  Solving for p, Initial residual = 0.00131157, Final residual = 0.000115987, No Iterations 4
time step continuity errors : sum local = 0.00489177, global = 0.000577973, cumulative = 1.19673
smoothSolver:  Solving for epsilon, Initial residual = 0.000137961, Final residual = 9.09876e-06, No Iterations 3
smoothSolver:  Solving for k, Initial residual = 0.000222085, Final residual = 1.35677e-05, No Iterations 4
ExecutionTime = 8.62 s  ClockTime = 9 s

Time = 287

smoothSolver:  Solving for Ux, Initial residual = 0.000119196, Final residual = 1.18977e-05, No Iterations 5
smoothSolver:  Solving for Uy, Initial residual = 0.000978938, Final residual = 6.50165e-05, No Iterations 6
GAMG:  Solving for p, Initial residual = 0.00132321, Final residual = 0.000106354, No Iterations 4
time step continuity errors : sum local = 0.00448017, global = 0.000545744, cumulative = 1.19728
smoothSolver:  Solving for epsilon, Initial residual = 0.000136565, Final residual = 9.09691e-06, No Iterations 3
smoothSolver:  Solving for k, Initial residual = 0.000217301, Final residual = 1.33075e-05, No Iterations 4
ExecutionTime = 8.65 s  ClockTime = 9 s


SIMPLE solution converged in 287 iterations

End

